
OS:Version,
  {ed0357c6-ae39-4d43-90fe-dc29a230c920}, !- Handle
  2.8.1;                                  !- Version Identifier

OS:Facility,
  {9d4e68ca-e9c8-4b17-b85f-9e7347064516}; !- Handle

OS:Site,
  {fd3ed79f-5d70-4930-9752-1bd59d52644e}, !- Handle
  Buffalo Niagara Intl Ap_NY_USA,         !- Name
  42.813153418927,                        !- Latitude {deg}
  -78.8478679776468,                      !- Longitude {deg}
  -5,                                     !- Time Zone {hr}
  215,                                    !- Elevation {m}
  City;                                   !- Terrain

OS:SimulationControl,
  {d41426f2-d742-4244-85b3-93c9beb6c7f5}, !- Handle
  ,                                       !- Do Zone Sizing Calculation
  ,                                       !- Do System Sizing Calculation
  ,                                       !- Do Plant Sizing Calculation
  No,                                     !- Run Simulation for Sizing Periods
  Yes;                                    !- Run Simulation for Weather File Run Periods

OS:Sizing:Parameters,
  {38b181dc-c5cc-4a5f-90bf-2a9eee685672}, !- Handle
  1.25,                                   !- Heating Sizing Factor
  1.15;                                   !- Cooling Sizing Factor

OS:Timestep,
  {1ed707b2-6af5-4392-b7b6-a8ffeeeb3abd}, !- Handle
  2;                                      !- Number of Timesteps per Hour

OS:ShadowCalculation,
  {ec3d60a4-c26e-4156-9838-bec548471489}, !- Handle
  20,                                     !- Calculation Frequency
  15000;                                  !- Maximum Figures in Shadow Overlap Calculations

OS:HeatBalanceAlgorithm,
  {c5a2f4aa-44c1-4b5d-8a91-6d893bf1c36c}, !- Handle
  ConductionTransferFunction,             !- Algorithm
  200;                                    !- Surface Temperature Upper Limit {C}

OS:RunPeriod,
  {c0f5cf2d-c7a1-4e2f-b9b2-19bd5d7f1288}, !- Handle
  Run Period 1,                           !- Name
  6,                                      !- Begin Month
  1,                                      !- Begin Day of Month
  8,                                      !- End Month
  1,                                      !- End Day of Month
  ,                                       !- Use Weather File Holidays and Special Days
  ,                                       !- Use Weather File Daylight Saving Period
  ,                                       !- Apply Weekend Holiday Rule
  ,                                       !- Use Weather File Rain Indicators
  ,                                       !- Use Weather File Snow Indicators
  ;                                       !- Number of Times Runperiod to be Repeated

OS:LifeCycleCost:Parameters,
  {f9ff3dc6-bdbb-43c6-9e1c-1168e6d5385f}, !- Handle
  ,                                       !- Analysis Type
  ,                                       !- Discounting Convention
  ,                                       !- Inflation Approach
  ,                                       !- Real Discount Rate
  ,                                       !- Nominal Discount Rate
  ,                                       !- Inflation
  ,                                       !- Base Date Month
  ,                                       !- Base Date Year
  ,                                       !- Service Date Month
  ,                                       !- Service Date Year
  ;                                       !- Length of Study Period in Years

OS:YearDescription,
  {b3ab7a3d-f70b-4a9c-b56e-da8a08ed5541}, !- Handle
  2019,                                   !- Calendar Year
  ,                                       !- Day of Week for Start Day
  ;                                       !- Is Leap Year

OS:WeatherFile,
  {3d93d10c-2000-4979-8773-138858a358d7}, !- Handle
  Buffalo Niagara Intl Ap,                !- City
  NY,                                     !- State Province Region
  USA,                                    !- Country
  TMY3,                                   !- Data Source
  725280,                                 !- WMO Number
  42.93,                                  !- Latitude {deg}
  -78.73,                                 !- Longitude {deg}
  -5,                                     !- Time Zone {hr}
  215,                                    !- Elevation {m}
  file:///C:/gitrepos/urbanopt-example-geojson-project/weather/USA_NY_Buffalo-Greater.Buffalo.Intl.AP.725280_TMY3.epw, !- Url
  ;                                       !- Checksum

OS:Site:WaterMainsTemperature,
  {92b8ecf3-93af-4292-95be-b62e8c75ec57}, !- Handle
  Correlation,                            !- Calculation Method
  ,                                       !- Temperature Schedule Name
  8.96666666666667,                       !- Annual Average Outdoor Air Temperature {C}
  26.2;                                   !- Maximum Difference In Monthly Average Outdoor Air Temperatures {deltaC}

OS:SizingPeriod:DesignDay,
  {93ef01fd-7621-426a-80fc-227fca8dd4ba}, !- Handle
  Buffalo Niagara Intl Ap Ann Clg .4% Condns DB=>MWB, !- Name
  30.3,                                   !- Maximum Dry-Bulb Temperature {C}
  9.3,                                    !- Daily Dry-Bulb Temperature Range {deltaC}
  21.8,                                   !- Humidity Indicating Conditions at Maximum Dry-Bulb
  98769,                                  !- Barometric Pressure {Pa}
  5.7,                                    !- Wind Speed {m/s}
  240,                                    !- Wind Direction {deg}
  0,                                      !- Sky Clearness
  0,                                      !- Rain Indicator
  0,                                      !- Snow Indicator
  21,                                     !- Day of Month
  7,                                      !- Month
  SummerDesignDay,                        !- Day Type
  0,                                      !- Daylight Saving Time Indicator
  Wetbulb,                                !- Humidity Indicating Type
  ,                                       !- Humidity Indicating Day Schedule Name
  DefaultMultipliers,                     !- Dry-Bulb Temperature Range Modifier Type
  ,                                       !- Dry-Bulb Temperature Range Modifier Schedule Name
  ASHRAETau,                              !- Solar Model Indicator
  ,                                       !- Beam Solar Day Schedule Name
  ,                                       !- Diffuse Solar Day Schedule Name
  0.462,                                  !- ASHRAE Taub {dimensionless}
  2.001;                                  !- ASHRAE Taud {dimensionless}

OS:SizingPeriod:DesignDay,
  {8c884bee-e57a-4226-acb4-8f66abe6c4ce}, !- Handle
  Buffalo Niagara Intl Ap Ann Htg 99.6% Condns DB, !- Name
  -16.3,                                  !- Maximum Dry-Bulb Temperature {C}
  0,                                      !- Daily Dry-Bulb Temperature Range {deltaC}
  -16.3,                                  !- Humidity Indicating Conditions at Maximum Dry-Bulb
  98769,                                  !- Barometric Pressure {Pa}
  5.1,                                    !- Wind Speed {m/s}
  270,                                    !- Wind Direction {deg}
  0,                                      !- Sky Clearness
  0,                                      !- Rain Indicator
  0,                                      !- Snow Indicator
  21,                                     !- Day of Month
  1,                                      !- Month
  WinterDesignDay,                        !- Day Type
  0,                                      !- Daylight Saving Time Indicator
  Wetbulb,                                !- Humidity Indicating Type
  ,                                       !- Humidity Indicating Day Schedule Name
  DefaultMultipliers,                     !- Dry-Bulb Temperature Range Modifier Type
  ,                                       !- Dry-Bulb Temperature Range Modifier Schedule Name
  ASHRAEClearSky;                         !- Solar Model Indicator

OS:SizingPeriod:DesignDay,
  {474fec31-82d3-48c4-9c37-e8d90a793166}, !- Handle
  Buffalo Niagara Intl Ap Ann Clg .4% Condns WB=>MDB, !- Name
  27.8,                                   !- Maximum Dry-Bulb Temperature {C}
  9.3,                                    !- Daily Dry-Bulb Temperature Range {deltaC}
  23.8,                                   !- Humidity Indicating Conditions at Maximum Dry-Bulb
  98769,                                  !- Barometric Pressure {Pa}
  5.7,                                    !- Wind Speed {m/s}
  240,                                    !- Wind Direction {deg}
  0,                                      !- Sky Clearness
  0,                                      !- Rain Indicator
  0,                                      !- Snow Indicator
  21,                                     !- Day of Month
  7,                                      !- Month
  SummerDesignDay,                        !- Day Type
  0,                                      !- Daylight Saving Time Indicator
  Wetbulb,                                !- Humidity Indicating Type
  ,                                       !- Humidity Indicating Day Schedule Name
  DefaultMultipliers,                     !- Dry-Bulb Temperature Range Modifier Type
  ,                                       !- Dry-Bulb Temperature Range Modifier Schedule Name
  ASHRAETau,                              !- Solar Model Indicator
  ,                                       !- Beam Solar Day Schedule Name
  ,                                       !- Diffuse Solar Day Schedule Name
  0.462,                                  !- ASHRAE Taub {dimensionless}
  2.001;                                  !- ASHRAE Taud {dimensionless}

OS:ClimateZones,
  {041e8459-3cc1-4b63-92cb-f2ae39f8b765}, !- Handle
  ,                                       !- Active Institution
  ,                                       !- Active Year
  ASHRAE,                                 !- Climate Zone Institution Name 1
  ANSI/ASHRAE Standard 169,               !- Climate Zone Document Name 1
  2006,                                   !- Climate Zone Document Year 1
  6A;                                     !- Climate Zone Value 1

OS:RunPeriodControl:DaylightSavingTime,
  {96140b3a-5329-4c66-93be-cf1f1a913b59}, !- Handle
  2nd Sunday in March,                    !- Start Date
  1st Sunday in November;                 !- End Date

OS:People:Definition,
  {8119b8f0-4d9d-45af-9d2c-1d74e98f685b}, !- Handle
  Office WholeBuilding - Md Office People Definition, !- Name
  People/Area,                            !- Number of People Calculation Method
  ,                                       !- Number of People {people}
  0.0538195520835486,                     !- People per Space Floor Area {person/m2}
  ,                                       !- Space Floor Area per Person {m2/person}
  0.3;                                    !- Fraction Radiant

OS:Schedule:Ruleset,
  {ff2d2d69-38f1-4a31-80d8-3bf77ce3e0fe}, !- Handle
  Clothing Schedule,                      !- Name
  {97aa351d-fdcd-4e4e-93b5-dc2801ce44f8}, !- Schedule Type Limits Name
  {54fc000f-3b06-4026-9bce-157a91a253c3}; !- Default Day Schedule Name

OS:Schedule:Day,
  {54fc000f-3b06-4026-9bce-157a91a253c3}, !- Handle
  Clothing Schedule Default Winter Clothes, !- Name
  {97aa351d-fdcd-4e4e-93b5-dc2801ce44f8}, !- Schedule Type Limits Name
  ,                                       !- Interpolate to Timestep
  24,                                     !- Hour 1
  0,                                      !- Minute 1
  1;                                      !- Value Until Time 1

OS:Schedule:Rule,
  {aba2acae-db66-42ec-adc3-b671b77cedfb}, !- Handle
  Schedule Rule 1,                        !- Name
  {ff2d2d69-38f1-4a31-80d8-3bf77ce3e0fe}, !- Schedule Ruleset Name
  0,                                      !- Rule Order
  {9ec7e88b-043b-4087-8943-5cd0228b3e7b}, !- Day Schedule Name
  ,                                       !- Apply Sunday
  ,                                       !- Apply Monday
  ,                                       !- Apply Tuesday
  ,                                       !- Apply Wednesday
  ,                                       !- Apply Thursday
  ,                                       !- Apply Friday
  ,                                       !- Apply Saturday
  ,                                       !- Apply Holiday
  DateRange,                              !- Date Specification Type
  5,                                      !- Start Month
  1,                                      !- Start Day
  9,                                      !- End Month
  30;                                     !- End Day

OS:Schedule:Day,
  {9ec7e88b-043b-4087-8943-5cd0228b3e7b}, !- Handle
  Clothing Schedule Summer Clothes,       !- Name
  {97aa351d-fdcd-4e4e-93b5-dc2801ce44f8}, !- Schedule Type Limits Name
  ,                                       !- Interpolate to Timestep
  24,                                     !- Hour 1
  0,                                      !- Minute 1
  0.5;                                    !- Value Until Time 1

OS:ScheduleTypeLimits,
  {97aa351d-fdcd-4e4e-93b5-dc2801ce44f8}, !- Handle
  ClothingInsulation,                     !- Name
  0,                                      !- Lower Limit Value
  ,                                       !- Upper Limit Value
  Continuous,                             !- Numeric Type
  ClothingInsulation;                     !- Unit Type

OS:Schedule:Ruleset,
  {b6ca3a00-964f-4e1e-955b-f0e925adc3f3}, !- Handle
  Air Velocity Schedule,                  !- Name
  {4b2f3f8a-df45-4ffc-8084-5030f20fd291}, !- Schedule Type Limits Name
  {b9ab375b-6325-4c0f-86c3-f9b8c57511e7}; !- Default Day Schedule Name

OS:Schedule:Day,
  {b9ab375b-6325-4c0f-86c3-f9b8c57511e7}, !- Handle
  Air Velocity Schedule Default,          !- Name
  {4b2f3f8a-df45-4ffc-8084-5030f20fd291}, !- Schedule Type Limits Name
  ,                                       !- Interpolate to Timestep
  24,                                     !- Hour 1
  0,                                      !- Minute 1
  0.2;                                    !- Value Until Time 1

OS:ScheduleTypeLimits,
  {4b2f3f8a-df45-4ffc-8084-5030f20fd291}, !- Handle
  Velocity,                               !- Name
  0,                                      !- Lower Limit Value
  ,                                       !- Upper Limit Value
  Continuous,                             !- Numeric Type
  Velocity;                               !- Unit Type

OS:Schedule:Ruleset,
  {c211662d-e592-4c21-a0f6-864489ab6c4d}, !- Handle
  Work Efficiency Schedule,               !- Name
  {7661ab2f-1e89-4b1c-a2f5-0b5f51fd8b3a}, !- Schedule Type Limits Name
  {89ef92ad-0883-450e-b153-e1dbef20012c}; !- Default Day Schedule Name

OS:Schedule:Day,
  {89ef92ad-0883-450e-b153-e1dbef20012c}, !- Handle
  Work Efficiency Schedule Default,       !- Name
  {7661ab2f-1e89-4b1c-a2f5-0b5f51fd8b3a}, !- Schedule Type Limits Name
  ,                                       !- Interpolate to Timestep
  24,                                     !- Hour 1
  0,                                      !- Minute 1
  0;                                      !- Value Until Time 1

OS:ScheduleTypeLimits,
  {7661ab2f-1e89-4b1c-a2f5-0b5f51fd8b3a}, !- Handle
  Fractional,                             !- Name
  0,                                      !- Lower Limit Value
  1,                                      !- Upper Limit Value
  Continuous;                             !- Numeric Type

OS:Lights:Definition,
  {29b6c9c3-b1ae-439a-b044-79c3e60d21e1}, !- Handle
  Office WholeBuilding - Md Office Lights Definition, !- Name
  Watts/Area,                             !- Design Level Calculation Method
  ,                                       !- Lighting Level {W}
  10.7639104167097,                       !- Watts per Space Floor Area {W/m2}
  ,                                       !- Watts per Person {W/person}
  0.7,                                    !- Fraction Radiant
  0.2;                                    !- Fraction Visible

OS:AdditionalProperties,
  {7821aaed-3b30-449b-bcfc-1dcd0ac4572c}, !- Handle
  {29b6c9c3-b1ae-439a-b044-79c3e60d21e1}, !- Object Name
  lpd_fraction_linear_fluorescent,        !- Feature Name 1
  Double,                                 !- Feature Data Type 1
  1;                                      !- Feature Value 1

OS:ElectricEquipment:Definition,
  {4a69bee2-f4aa-41f1-9230-d98f0c3b422f}, !- Handle
  Office WholeBuilding - Md Office Elec Equip Definition, !- Name
  Watts/Area,                             !- Design Level Calculation Method
  ,                                       !- Design Level {W}
  8.07293281253229,                       !- Watts per Space Floor Area {W/m2}
  ,                                       !- Watts per Person {W/person}
  ,                                       !- Fraction Latent
  0.5;                                    !- Fraction Radiant

OS:DesignSpecification:OutdoorAir,
  {673a2a0a-a0d5-4b03-a052-7e5c2e864c73}, !- Handle
  Office WholeBuilding - Md Office Ventilation, !- Name
  Sum,                                    !- Outdoor Air Method
  ,                                       !- Outdoor Air Flow per Person {m3/s-person}
  0.000508,                               !- Outdoor Air Flow per Floor Area {m3/s-m2}
  ,                                       !- Outdoor Air Flow Rate {m3/s}
  ,                                       !- Outdoor Air Flow Air Changes per Hour {1/hr}
  ;                                       !- Outdoor Air Flow Rate Fraction Schedule Name

OS:DefaultScheduleSet,
  {cdb3ece3-c7a0-4054-96b5-925384c0cb63}, !- Handle
  Office WholeBuilding - Md Office Schedule Set, !- Name
  ,                                       !- Hours of Operation Schedule Name
  {a973d3c6-f93e-473a-b1b9-7f754651792b}, !- Number of People Schedule Name
  {161ba308-2810-4c88-b710-aa16be0dbc25}, !- People Activity Level Schedule Name
  {695e56b0-1be3-4efb-9101-a21b8048293d}, !- Lighting Schedule Name
  {4ce09d8a-da1f-419b-a56f-acfaf7a79be3}, !- Electric Equipment Schedule Name
  ,                                       !- Gas Equipment Schedule Name
  ,                                       !- Hot Water Equipment Schedule Name
  {683823ab-be5f-4f8a-babb-c7688c7a6646}, !- Infiltration Schedule Name
  ,                                       !- Steam Equipment Schedule Name
  ;                                       !- Other Equipment Schedule Name

OS:Schedule:Ruleset,
  {a973d3c6-f93e-473a-b1b9-7f754651792b}, !- Handle
  OfficeMedium BLDG_OCC_SCH,              !- Name
  {7661ab2f-1e89-4b1c-a2f5-0b5f51fd8b3a}, !- Schedule Type Limits Name
  {67c11b1c-0b55-4a57-96b9-d15eabc8dbca}, !- Default Day Schedule Name
  {71c52fd7-e43f-4386-a820-9aae2827e6e6}, !- Summer Design Day Schedule Name
  {835d4edb-67c0-49f1-be1b-b387a701bd33}; !- Winter Design Day Schedule Name

OS:Schedule:Day,
  {67c11b1c-0b55-4a57-96b9-d15eabc8dbca}, !- Handle
  OfficeMedium BLDG_OCC_SCH Default,      !- Name
  {7661ab2f-1e89-4b1c-a2f5-0b5f51fd8b3a}, !- Schedule Type Limits Name
  ,                                       !- Interpolate to Timestep
  6,                                      !- Hour 1
  0,                                      !- Minute 1
  0,                                      !- Value Until Time 1
  18,                                     !- Hour 2
  0,                                      !- Minute 2
  0.05,                                   !- Value Until Time 2
  24,                                     !- Hour 3
  0,                                      !- Minute 3
  0;                                      !- Value Until Time 3

OS:Schedule:Rule,
  {1fd2e36a-0a08-4d3e-83ae-a24ed6e2baa4}, !- Handle
  Schedule Rule 2,                        !- Name
  {a973d3c6-f93e-473a-b1b9-7f754651792b}, !- Schedule Ruleset Name
  1,                                      !- Rule Order
  {6e3bce1f-e2d9-43c2-8b85-f045e93dce28}, !- Day Schedule Name
  ,                                       !- Apply Sunday
  ,                                       !- Apply Monday
  ,                                       !- Apply Tuesday
  ,                                       !- Apply Wednesday
  ,                                       !- Apply Thursday
  ,                                       !- Apply Friday
  Yes,                                    !- Apply Saturday
  ,                                       !- Apply Holiday
  DateRange,                              !- Date Specification Type
  1,                                      !- Start Month
  1,                                      !- Start Day
  12,                                     !- End Month
  31;                                     !- End Day

OS:Schedule:Day,
  {6e3bce1f-e2d9-43c2-8b85-f045e93dce28}, !- Handle
  OfficeMedium BLDG_OCC_SCH Sat Day,      !- Name
  {7661ab2f-1e89-4b1c-a2f5-0b5f51fd8b3a}, !- Schedule Type Limits Name
  ,                                       !- Interpolate to Timestep
  6,                                      !- Hour 1
  0,                                      !- Minute 1
  0,                                      !- Value Until Time 1
  8,                                      !- Hour 2
  0,                                      !- Minute 2
  0.1,                                    !- Value Until Time 2
  12,                                     !- Hour 3
  0,                                      !- Minute 3
  0.3,                                    !- Value Until Time 3
  17,                                     !- Hour 4
  0,                                      !- Minute 4
  0.1,                                    !- Value Until Time 4
  19,                                     !- Hour 5
  0,                                      !- Minute 5
  0.05,                                   !- Value Until Time 5
  24,                                     !- Hour 6
  0,                                      !- Minute 6
  0;                                      !- Value Until Time 6

OS:Schedule:Day,
  {71c52fd7-e43f-4386-a820-9aae2827e6e6}, !- Handle
  OfficeMedium BLDG_OCC_SCH Summer Design Day, !- Name
  {7661ab2f-1e89-4b1c-a2f5-0b5f51fd8b3a}, !- Schedule Type Limits Name
  ,                                       !- Interpolate to Timestep
  6,                                      !- Hour 1
  0,                                      !- Minute 1
  0,                                      !- Value Until Time 1
  22,                                     !- Hour 2
  0,                                      !- Minute 2
  1,                                      !- Value Until Time 2
  24,                                     !- Hour 3
  0,                                      !- Minute 3
  0.05;                                   !- Value Until Time 3

OS:Schedule:Rule,
  {c5d5ddb7-96c1-43c7-9c9b-d7065662e04f}, !- Handle
  Schedule Rule 3,                        !- Name
  {a973d3c6-f93e-473a-b1b9-7f754651792b}, !- Schedule Ruleset Name
  0,                                      !- Rule Order
  {70c0e136-b880-473e-97ac-f1304b587d47}, !- Day Schedule Name
  ,                                       !- Apply Sunday
  Yes,                                    !- Apply Monday
  Yes,                                    !- Apply Tuesday
  Yes,                                    !- Apply Wednesday
  Yes,                                    !- Apply Thursday
  Yes,                                    !- Apply Friday
  ,                                       !- Apply Saturday
  ,                                       !- Apply Holiday
  DateRange,                              !- Date Specification Type
  1,                                      !- Start Month
  1,                                      !- Start Day
  12,                                     !- End Month
  31;                                     !- End Day

OS:Schedule:Day,
  {70c0e136-b880-473e-97ac-f1304b587d47}, !- Handle
  OfficeMedium BLDG_OCC_SCH Wkdy Day,     !- Name
  {7661ab2f-1e89-4b1c-a2f5-0b5f51fd8b3a}, !- Schedule Type Limits Name
  ,                                       !- Interpolate to Timestep
  6,                                      !- Hour 1
  0,                                      !- Minute 1
  0,                                      !- Value Until Time 1
  7,                                      !- Hour 2
  0,                                      !- Minute 2
  0.1,                                    !- Value Until Time 2
  8,                                      !- Hour 3
  0,                                      !- Minute 3
  0.2,                                    !- Value Until Time 3
  12,                                     !- Hour 4
  0,                                      !- Minute 4
  0.95,                                   !- Value Until Time 4
  13,                                     !- Hour 5
  0,                                      !- Minute 5
  0.5,                                    !- Value Until Time 5
  17,                                     !- Hour 6
  0,                                      !- Minute 6
  0.95,                                   !- Value Until Time 6
  18,                                     !- Hour 7
  0,                                      !- Minute 7
  0.3,                                    !- Value Until Time 7
  22,                                     !- Hour 8
  0,                                      !- Minute 8
  0.1,                                    !- Value Until Time 8
  24,                                     !- Hour 9
  0,                                      !- Minute 9
  0.05;                                   !- Value Until Time 9

OS:Schedule:Day,
  {835d4edb-67c0-49f1-be1b-b387a701bd33}, !- Handle
  OfficeMedium BLDG_OCC_SCH Winter Design Day, !- Name
  {7661ab2f-1e89-4b1c-a2f5-0b5f51fd8b3a}, !- Schedule Type Limits Name
  ,                                       !- Interpolate to Timestep
  24,                                     !- Hour 1
  0,                                      !- Minute 1
  0;                                      !- Value Until Time 1

OS:Schedule:Ruleset,
  {161ba308-2810-4c88-b710-aa16be0dbc25}, !- Handle
  OfficeMedium ACTIVITY_SCH,              !- Name
  {f6962483-7366-48b4-aa01-2da00d94946b}, !- Schedule Type Limits Name
  {d7a4b840-3e35-43c0-9525-40df94ee02b3}, !- Default Day Schedule Name
  {809e4c68-97b6-470a-882d-0c32a7c0d790}, !- Summer Design Day Schedule Name
  {40ab1042-7214-4651-ae67-e9a4196c6994}; !- Winter Design Day Schedule Name

OS:Schedule:Day,
  {d7a4b840-3e35-43c0-9525-40df94ee02b3}, !- Handle
  OfficeMedium ACTIVITY_SCH Default,      !- Name
  {f6962483-7366-48b4-aa01-2da00d94946b}, !- Schedule Type Limits Name
  ,                                       !- Interpolate to Timestep
  24,                                     !- Hour 1
  0,                                      !- Minute 1
  120;                                    !- Value Until Time 1

OS:Schedule:Day,
  {40ab1042-7214-4651-ae67-e9a4196c6994}, !- Handle
  OfficeMedium ACTIVITY_SCH Winter Design Day, !- Name
  {f6962483-7366-48b4-aa01-2da00d94946b}, !- Schedule Type Limits Name
  ,                                       !- Interpolate to Timestep
  24,                                     !- Hour 1
  0,                                      !- Minute 1
  120;                                    !- Value Until Time 1

OS:Schedule:Day,
  {809e4c68-97b6-470a-882d-0c32a7c0d790}, !- Handle
  OfficeMedium ACTIVITY_SCH Summer Design Day, !- Name
  {f6962483-7366-48b4-aa01-2da00d94946b}, !- Schedule Type Limits Name
  ,                                       !- Interpolate to Timestep
  24,                                     !- Hour 1
  0,                                      !- Minute 1
  120;                                    !- Value Until Time 1

OS:ScheduleTypeLimits,
  {f6962483-7366-48b4-aa01-2da00d94946b}, !- Handle
  ActivityLevel,                          !- Name
  0,                                      !- Lower Limit Value
  ,                                       !- Upper Limit Value
  Continuous,                             !- Numeric Type
  ActivityLevel;                          !- Unit Type

OS:Schedule:Ruleset,
  {695e56b0-1be3-4efb-9101-a21b8048293d}, !- Handle
  OfficeMedium BLDG_LIGHT_SCH_2004,       !- Name
  {7661ab2f-1e89-4b1c-a2f5-0b5f51fd8b3a}, !- Schedule Type Limits Name
  {92af9930-4d7c-4421-be2d-f4b46c86c83f}, !- Default Day Schedule Name
  {4e052a91-db1e-409c-88a7-b2117a4c3d85}, !- Summer Design Day Schedule Name
  {ff484706-ed23-40cb-90b2-afd74ba102c7}; !- Winter Design Day Schedule Name

OS:Schedule:Day,
  {92af9930-4d7c-4421-be2d-f4b46c86c83f}, !- Handle
  Schedule Day 5,                         !- Name
  {7661ab2f-1e89-4b1c-a2f5-0b5f51fd8b3a}, !- Schedule Type Limits Name
  ,                                       !- Interpolate to Timestep
  24,                                     !- Hour 1
  0,                                      !- Minute 1
  0;                                      !- Value Until Time 1

OS:Schedule:Rule,
  {f844400d-2f59-4bbb-9952-d2d65e8fa313}, !- Handle
  Schedule Rule 4,                        !- Name
  {695e56b0-1be3-4efb-9101-a21b8048293d}, !- Schedule Ruleset Name
  2,                                      !- Rule Order
  {005f7dcc-023f-40da-8308-f117822d1742}, !- Day Schedule Name
  ,                                       !- Apply Sunday
  ,                                       !- Apply Monday
  ,                                       !- Apply Tuesday
  ,                                       !- Apply Wednesday
  ,                                       !- Apply Thursday
  ,                                       !- Apply Friday
  Yes,                                    !- Apply Saturday
  ,                                       !- Apply Holiday
  DateRange,                              !- Date Specification Type