
OS:Version,
  {2c8d08f0-7aec-4230-8b67-a50a332318cc}, !- Handle
  2.8.1;                                  !- Version Identifier

OS:Facility,
  {1f650f8a-8e51-48c1-9e7e-9aaf59db4a17}; !- Handle

OS:Site,
  {78f3b47a-1ed7-4437-81aa-39be8792788f}, !- Handle
  Buffalo Niagara Intl Ap_NY_USA,         !- Name
  42.8177446702697,                       !- Latitude {deg}
  -78.852465967195,                       !- Longitude {deg}
  -5,                                     !- Time Zone {hr}
  215,                                    !- Elevation {m}
  City;                                   !- Terrain

OS:SimulationControl,
  {0ffb6d24-72e0-4c40-b734-6ebec95d4894}, !- Handle
  ,                                       !- Do Zone Sizing Calculation
  ,                                       !- Do System Sizing Calculation
  ,                                       !- Do Plant Sizing Calculation
  No,                                     !- Run Simulation for Sizing Periods
  Yes;                                    !- Run Simulation for Weather File Run Periods

OS:Sizing:Parameters,
  {95485620-a07a-449f-a309-34c246c87e9b}, !- Handle
  1.25,                                   !- Heating Sizing Factor
  1.15;                                   !- Cooling Sizing Factor

OS:Timestep,
  {c07b22a8-2ecf-44a8-a700-4d1993f9cf00}, !- Handle
  2;                                      !- Number of Timesteps per Hour

OS:ShadowCalculation,
  {1d0eedc6-2834-485c-b00c-2a5d900f50b5}, !- Handle
  20,                                     !- Calculation Frequency
  15000;                                  !- Maximum Figures in Shadow Overlap Calculations

OS:HeatBalanceAlgorithm,
  {bf832739-e44a-48e4-a4ed-8a92dc587f90}, !- Handle
  ConductionTransferFunction,             !- Algorithm
  200;                                    !- Surface Temperature Upper Limit {C}

OS:RunPeriod,
  {2a79cd96-7451-4058-a61a-8310f21fa646}, !- Handle
  Run Period 1,                           !- Name
  6,                                      !- Begin Month
  1,                                      !- Begin Day of Month
  8,                                      !- End Month
  1,                                      !- End Day of Month
  ,                                       !- Use Weather File Holidays and Special Days
  ,                                       !- Use Weather File Daylight Saving Period
  ,                                       !- Apply Weekend Holiday Rule
  ,                                       !- Use Weather File Rain Indicators
  ,                                       !- Use Weather File Snow Indicators
  ;                                       !- Number of Times Runperiod to be Repeated

OS:LifeCycleCost:Parameters,
  {bc5b2873-97fa-4fe4-b065-d31723084037}, !- Handle
  ,                                       !- Analysis Type
  ,                                       !- Discounting Convention
  ,                                       !- Inflation Approach
  ,                                       !- Real Discount Rate
  ,                                       !- Nominal Discount Rate
  ,                                       !- Inflation
  ,                                       !- Base Date Month
  ,                                       !- Base Date Year
  ,                                       !- Service Date Month
  ,                                       !- Service Date Year
  ;                                       !- Length of Study Period in Years

OS:YearDescription,
  {ae1c686b-47e6-45d2-9846-48605bebb6c0}, !- Handle
  2019,                                   !- Calendar Year
  ,                                       !- Day of Week for Start Day
  ;                                       !- Is Leap Year

OS:WeatherFile,
  {3d95b614-8eec-4793-8c51-7535db91f3fa}, !- Handle
  Buffalo Niagara Intl Ap,                !- City
  NY,                                     !- State Province Region
  USA,                                    !- Country
  TMY3,                                   !- Data Source
  725280,                                 !- WMO Number
  42.93,                                  !- Latitude {deg}
  -78.73,                                 !- Longitude {deg}
  -5,                                     !- Time Zone {hr}
  215,                                    !- Elevation {m}
  file:///C:/gitrepos/urbanopt-example-geojson-project/weather/USA_NY_Buffalo-Greater.Buffalo.Intl.AP.725280_TMY3.epw, !- Url
  ;                                       !- Checksum

OS:Site:WaterMainsTemperature,
  {888acb1e-8cda-475b-bac2-fc217128aa9c}, !- Handle
  Correlation,                            !- Calculation Method
  ,                                       !- Temperature Schedule Name
  8.96666666666667,                       !- Annual Average Outdoor Air Temperature {C}
  26.2;                                   !- Maximum Difference In Monthly Average Outdoor Air Temperatures {deltaC}

OS:SizingPeriod:DesignDay,
  {316fee45-1054-453d-ab55-20c03b28a553}, !- Handle
  Buffalo Niagara Intl Ap Ann Htg 99.6% Condns DB, !- Name
  -16.3,                                  !- Maximum Dry-Bulb Temperature {C}
  0,                                      !- Daily Dry-Bulb Temperature Range {deltaC}
  -16.3,                                  !- Humidity Indicating Conditions at Maximum Dry-Bulb
  98769,                                  !- Barometric Pressure {Pa}
  5.1,                                    !- Wind Speed {m/s}
  270,                                    !- Wind Direction {deg}
  0,                                      !- Sky Clearness
  0,                                      !- Rain Indicator
  0,                                      !- Snow Indicator
  21,                                     !- Day of Month
  1,                                      !- Month
  WinterDesignDay,                        !- Day Type
  0,                                      !- Daylight Saving Time Indicator
  Wetbulb,                                !- Humidity Indicating Type
  ,                                       !- Humidity Indicating Day Schedule Name
  DefaultMultipliers,                     !- Dry-Bulb Temperature Range Modifier Type
  ,                                       !- Dry-Bulb Temperature Range Modifier Schedule Name
  ASHRAEClearSky;                         !- Solar Model Indicator

OS:SizingPeriod:DesignDay,
  {bc94b139-3a17-46eb-bfbe-77ac0087618f}, !- Handle
  Buffalo Niagara Intl Ap Ann Clg .4% Condns DB=>MWB, !- Name
  30.3,                                   !- Maximum Dry-Bulb Temperature {C}
  9.3,                                    !- Daily Dry-Bulb Temperature Range {deltaC}
  21.8,                                   !- Humidity Indicating Conditions at Maximum Dry-Bulb
  98769,                                  !- Barometric Pressure {Pa}
  5.7,                                    !- Wind Speed {m/s}
  240,                                    !- Wind Direction {deg}
  0,                                      !- Sky Clearness
  0,                                      !- Rain Indicator
  0,                                      !- Snow Indicator
  21,                                     !- Day of Month
  7,                                      !- Month
  SummerDesignDay,                        !- Day Type
  0,                                      !- Daylight Saving Time Indicator
  Wetbulb,                                !- Humidity Indicating Type
  ,                                       !- Humidity Indicating Day Schedule Name
  DefaultMultipliers,                     !- Dry-Bulb Temperature Range Modifier Type
  ,                                       !- Dry-Bulb Temperature Range Modifier Schedule Name
  ASHRAETau,                              !- Solar Model Indicator
  ,                                       !- Beam Solar Day Schedule Name
  ,                                       !- Diffuse Solar Day Schedule Name
  0.462,                                  !- ASHRAE Taub {dimensionless}
  2.001;                                  !- ASHRAE Taud {dimensionless}

OS:SizingPeriod:DesignDay,
  {133cd6a0-1cd3-457e-856d-906463350571}, !- Handle
  Buffalo Niagara Intl Ap Ann Clg .4% Condns WB=>MDB, !- Name
  27.8,                                   !- Maximum Dry-Bulb Temperature {C}
  9.3,                                    !- Daily Dry-Bulb Temperature Range {deltaC}
  23.8,                                   !- Humidity Indicating Conditions at Maximum Dry-Bulb
  98769,                                  !- Barometric Pressure {Pa}
  5.7,                                    !- Wind Speed {m/s}
  240,                                    !- Wind Direction {deg}
  0,                                      !- Sky Clearness
  0,                                      !- Rain Indicator
  0,                                      !- Snow Indicator
  21,                                     !- Day of Month
  7,                                      !- Month
  SummerDesignDay,                        !- Day Type
  0,                                      !- Daylight Saving Time Indicator
  Wetbulb,                                !- Humidity Indicating Type
  ,                                       !- Humidity Indicating Day Schedule Name
  DefaultMultipliers,                     !- Dry-Bulb Temperature Range Modifier Type
  ,                                       !- Dry-Bulb Temperature Range Modifier Schedule Name
  ASHRAETau,                              !- Solar Model Indicator
  ,                                       !- Beam Solar Day Schedule Name
  ,                                       !- Diffuse Solar Day Schedule Name
  0.462,                                  !- ASHRAE Taub {dimensionless}
  2.001;                                  !- ASHRAE Taud {dimensionless}

OS:ClimateZones,
  {f0a8f656-8bae-4099-96c8-26a735815cb3}, !- Handle
  ,                                       !- Active Institution
  ,                                       !- Active Year
  ASHRAE,                                 !- Climate Zone Institution Name 1
  ANSI/ASHRAE Standard 169,               !- Climate Zone Document Name 1
  2006,                                   !- Climate Zone Document Year 1
  6A;                                     !- Climate Zone Value 1

OS:RunPeriodControl:DaylightSavingTime,
  {974f351e-4a02-4c56-9290-73b353b6431a}, !- Handle
  2nd Sunday in March,                    !- Start Date
  1st Sunday in November;                 !- End Date

OS:People:Definition,
  {8c9df05e-ab11-4f95-b318-5026820a72c0}, !- Handle
  LargeHotel Corridor People Definition,  !- Name
  People/Area,                            !- Number of People Calculation Method
  ,                                       !- Number of People {people}
  0.0107639104167097,                     !- People per Space Floor Area {person/m2}
  ,                                       !- Space Floor Area per Person {m2/person}
  0.3;                                    !- Fraction Radiant

OS:Schedule:Ruleset,
  {b23ae9e8-770e-4a4e-957c-62ec47bbff68}, !- Handle
  Clothing Schedule,                      !- Name
  {6289d86a-e66a-4638-bf89-5d1b1b43353f}, !- Schedule Type Limits Name
  {4b218f99-4dab-4040-bc64-a021921500dc}; !- Default Day Schedule Name

OS:Schedule:Day,
  {4b218f99-4dab-4040-bc64-a021921500dc}, !- Handle
  Clothing Schedule Default Winter Clothes, !- Name
  {6289d86a-e66a-4638-bf89-5d1b1b43353f}, !- Schedule Type Limits Name
  ,                                       !- Interpolate to Timestep
  24,                                     !- Hour 1
  0,                                      !- Minute 1
  1;                                      !- Value Until Time 1

OS:Schedule:Rule,
  {db136b57-56cc-4f2b-8690-07a01881da7e}, !- Handle
  Schedule Rule 1,                        !- Name
  {b23ae9e8-770e-4a4e-957c-62ec47bbff68}, !- Schedule Ruleset Name
  0,                                      !- Rule Order
  {e0265fda-7672-4bc5-809e-99ea83ddce9f}, !- Day Schedule Name
  ,                                       !- Apply Sunday
  ,                                       !- Apply Monday
  ,                                       !- Apply Tuesday
  ,                                       !- Apply Wednesday
  ,                                       !- Apply Thursday
  ,                                       !- Apply Friday
  ,                                       !- Apply Saturday
  ,                                       !- Apply Holiday
  DateRange,                              !- Date Specification Type
  5,                                      !- Start Month
  1,                                      !- Start Day
  9,                                      !- End Month
  30;                                     !- End Day

OS:Schedule:Day,
  {e0265fda-7672-4bc5-809e-99ea83ddce9f}, !- Handle
  Clothing Schedule Summer Clothes,       !- Name
  {6289d86a-e66a-4638-bf89-5d1b1b43353f}, !- Schedule Type Limits Name
  ,                                       !- Interpolate to Timestep
  24,                                     !- Hour 1
  0,                                      !- Minute 1
  0.5;                                    !- Value Until Time 1

OS:ScheduleTypeLimits,
  {6289d86a-e66a-4638-bf89-5d1b1b43353f}, !- Handle
  ClothingInsulation,                     !- Name
  0,                                      !- Lower Limit Value
  ,                                       !- Upper Limit Value
  Continuous,                             !- Numeric Type
  ClothingInsulation;                     !- Unit Type

OS:Schedule:Ruleset,
  {48a63b90-a6f9-433a-a089-fcf52a743d13}, !- Handle
  Air Velocity Schedule,                  !- Name
  {c9562a35-5b42-47a7-b5aa-fb88e750557c}, !- Schedule Type Limits Name
  {104f810f-7ed9-405d-b746-6a30b9324bb2}; !- Default Day Schedule Name

OS:Schedule:Day,
  {104f810f-7ed9-405d-b746-6a30b9324bb2}, !- Handle
  Air Velocity Schedule Default,          !- Name
  {c9562a35-5b42-47a7-b5aa-fb88e750557c}, !- Schedule Type Limits Name
  ,                                       !- Interpolate to Timestep
  24,                                     !- Hour 1
  0,                                      !- Minute 1
  0.2;                                    !- Value Until Time 1

OS:ScheduleTypeLimits,
  {c9562a35-5b42-47a7-b5aa-fb88e750557c}, !- Handle
  Velocity,                               !- Name
  0,                                      !- Lower Limit Value
  ,                                       !- Upper Limit Value
  Continuous,                             !- Numeric Type
  Velocity;                               !- Unit Type

OS:Schedule:Ruleset,
  {29501ade-3370-464b-b8b4-2f0e56c9a364}, !- Handle
  Work Efficiency Schedule,               !- Name
  {7dcae064-4b12-422c-8efe-31699a604efb}, !- Schedule Type Limits Name
  {67bdb4ef-6db3-494d-8c4c-5114dac924a6}; !- Default Day Schedule Name

OS:Schedule:Day,
  {67bdb4ef-6db3-494d-8c4c-5114dac924a6}, !- Handle
  Work Efficiency Schedule Default,       !- Name
  {7dcae064-4b12-422c-8efe-31699a604efb}, !- Schedule Type Limits Name
  ,                                       !- Interpolate to Timestep
  24,                                     !- Hour 1
  0,                                      !- Minute 1
  0;                                      !- Value Until Time 1

OS:ScheduleTypeLimits,
  {7dcae064-4b12-422c-8efe-31699a604efb}, !- Handle
  Fractional,                             !- Name
  0,                                      !- Lower Limit Value
  1,                                      !- Upper Limit Value
  Continuous;                             !- Numeric Type

OS:Lights:Definition,
  {4db10e24-753a-4e12-ba6f-ee885290064e}, !- Handle
  LargeHotel Corridor Lights Definition,  !- Name
  Watts/Area,                             !- Design Level Calculation Method
  ,                                       !- Lighting Level {W}
  5.38195520835486,                       !- Watts per Space Floor Area {W/m2}
  ,                                       !- Watts per Person {W/person}
  0.7,                                    !- Fraction Radiant
  0.2;                                    !- Fraction Visible

OS:AdditionalProperties,
  {bd0240be-1b3f-454b-adc5-66a49d59f8c8}, !- Handle
  {4db10e24-753a-4e12-ba6f-ee885290064e}, !- Object Name
  lpd_fraction_linear_fluorescent,        !- Feature Name 1
  Double,                                 !- Feature Data Type 1
  1;                                      !- Feature Value 1

OS:DesignSpecification:OutdoorAir,
  {5f511f7a-d2b8-4c6b-bfdc-fd88b4b60b46}, !- Handle
  LargeHotel Corridor Ventilation,        !- Name
  Sum,                                    !- Outdoor Air Method
  ,                                       !- Outdoor Air Flow per Person {m3/s-person}
  0.000254,                               !- Outdoor Air Flow per Floor Area {m3/s-m2}
  ,                                       !- Outdoor Air Flow Rate {m3/s}
  ,                                       !- Outdoor Air Flow Air Changes per Hour {1/hr}
  ;                                       !- Outdoor Air Flow Rate Fraction Schedule Name

OS:DefaultScheduleSet,
  {b12560ff-beed-4e52-88c8-3e3c609e8f07}, !- Handle
  LargeHotel Corridor Schedule Set,       !- Name
  ,                                       !- Hours of Operation Schedule Name
  {2b45ce00-bf10-46c4-9c74-edb69e70936e}, !- Number of People Schedule Name
  {854ea404-86dd-47c6-99a8-769101080c82}, !- People Activity Level Schedule Name
  {992fd91e-32e8-4c9d-aae4-d40d7ade72e7}, !- Lighting Schedule Name
  {79def6cb-068e-481f-b687-a6f58f6ec695}, !- Electric Equipment Schedule Name
  ,                                       !- Gas Equipment Schedule Name
  ,                                       !- Hot Water Equipment Schedule Name
  {08c77f20-2703-4961-b5bf-f6ac2a6ff070}, !- Infiltration Schedule Name
  ,                                       !- Steam Equipment Schedule Name
  ;                                       !- Other Equipment Schedule Name

OS:Schedule:Ruleset,
  {2b45ce00-bf10-46c4-9c74-edb69e70936e}, !- Handle
  HotelLarge BLDG_OCC_SCH,                !- Name
  {7dcae064-4b12-422c-8efe-31699a604efb}, !- Schedule Type Limits Name
  {342f65a8-defb-43e6-bd18-d8d847a47210}, !- Default Day Schedule Name
  {583c7ee1-c5ea-4bc5-937e-386107bf7110}, !- Summer Design Day Schedule Name
  {639cb30f-4cbd-41c3-899d-4bbd6463748b}; !- Winter Design Day Schedule Name

OS:Schedule:Day,
  {342f65a8-defb-43e6-bd18-d8d847a47210}, !- Handle
  HotelLarge BLDG_OCC_SCH Default,        !- Name
  {7dcae064-4b12-422c-8efe-31699a604efb}, !- Schedule Type Limits Name
  ,                                       !- Interpolate to Timestep
  8,                                      !- Hour 1
  0,                                      !- Minute 1
  0.7,                                    !- Value Until Time 1
  11,                                     !- Hour 2
  0,                                      !- Minute 2
  0.5,                                    !- Value Until Time 2
  13,                                     !- Hour 3
  0,                                      !- Minute 3
  0.3,                                    !- Value Until Time 3
  16,                                     !- Hour 4
  0,                                      !- Minute 4
  0.2,                                    !- Value Until Time 4
  17,                                     !- Hour 5
  0,                                      !- Minute 5
  0.3,                                    !- Value Until Time 5
  19,                                     !- Hour 6
  0,                                      !- Minute 6
  0.4,                                    !- Value Until Time 6
  21,                                     !- Hour 7
  0,                                      !- Minute 7
  0.6,                                    !- Value Until Time 7
  24,                                     !- Hour 8
  0,                                      !- Minute 8
  0.8;                                    !- Value Until Time 8

OS:Schedule:Rule,
  {4150112a-ff51-4173-8ea0-c4fdc0ea8fdb}, !- Handle
  Schedule Rule 2,                        !- Name
  {2b45ce00-bf10-46c4-9c74-edb69e70936e}, !- Schedule Ruleset Name
  1,                                      !- Rule Order
  {d0f5dadf-2d03-495a-883b-aafb22314720}, !- Day Schedule Name
  ,                                       !- Apply Sunday
  ,                                       !- Apply Monday
  ,                                       !- Apply Tuesday
  ,                                       !- Apply Wednesday
  ,                                       !- Apply Thursday
  ,                                       !- Apply Friday
  Yes,                                    !- Apply Saturday
  ,                                       !- Apply Holiday
  DateRange,                              !- Date Specification Type
  1,                                      !- Start Month
  1,                                      !- Start Day
  12,                                     !- End Month
  31;                                     !- End Day

OS:Schedule:Day,
  {d0f5dadf-2d03-495a-883b-aafb22314720}, !- Handle
  HotelLarge BLDG_OCC_SCH Sat Day,        !- Name
  {7dcae064-4b12-422c-8efe-31699a604efb}, !- Schedule Type Limits Name
  ,                                       !- Interpolate to Timestep
  6,                                      !- Hour 1
  0,                                      !- Minute 1
  0.9,                                    !- Value Until Time 1
  7,                                      !- Hour 2
  0,                                      !- Minute 2
  0.7,                                    !- Value Until Time 2
  9,                                      !- Hour 3
  0,                                      !- Minute 3
  0.5,                                    !- Value Until Time 3
  17,                                     !- Hour 4
  0,                                      !- Minute 4
  0.3,                                    !- Value Until Time 4
  18,                                     !- Hour 5
  0,                                      !- Minute 5
  0.5,                                    !- Value Until Time 5
  21,                                     !- Hour 6
  0,                                      !- Minute 6
  0.6,                                    !- Value Until Time 6
  24,                                     !- Hour 7
  0,                                      !- Minute 7
  0.7;                                    !- Value Until Time 7

OS:Schedule:Day,
  {583c7ee1-c5ea-4bc5-937e-386107bf7110}, !- Handle
  HotelLarge BLDG_OCC_SCH Summer Design Day, !- Name
  {7dcae064-4b12-422c-8efe-31699a604efb}, !- Schedule Type Limits Name
  ,                                       !- Interpolate to Timestep
  24,                                     !- Hour 1
  0,                                      !- Minute 1
  1;                                      !- Value Until Time 1

OS:Schedule:Rule,
  {f9b1030d-e857-4626-96ce-b39429d16fa4}, !- Handle
  Schedule Rule 3,                        !- Name
  {2b45ce00-bf10-46c4-9c74-edb69e70936e}, !- Schedule Ruleset Name
  0,                                      !- Rule Order
  {c049f339-98f5-4920-8120-d0dc404fe19c}, !- Day Schedule Name
  ,                                       !- Apply Sunday
  Yes,                                    !- Apply Monday
  Yes,                                    !- Apply Tuesday
  Yes,                                    !- Apply Wednesday
  Yes,                                    !- Apply Thursday
  Yes,                                    !- Apply Friday
  ,                                       !- Apply Saturday
  ,                                       !- Apply Holiday
  DateRange,                              !- Date Specification Type
  1,                                      !- Start Month
  1,                                      !- Start Day
  12,                                     !- End Month
  31;                                     !- End Day

OS:Schedule:Day,
  {c049f339-98f5-4920-8120-d0dc404fe19c}, !- Handle
  HotelLarge BLDG_OCC_SCH Wkdy Day,       !- Name
  {7dcae064-4b12-422c-8efe-31699a604efb}, !- Schedule Type Limits Name
  ,                                       !- Interpolate to Timestep
  6,                                      !- Hour 1
  0,                                      !- Minute 1
  0.9,                                    !- Value Until Time 1
  7,                                      !- Hour 2
  0,                                      !- Minute 2
  0.7,                                    !- Value Until Time 2
  9,                                      !- Hour 3
  0,                                      !- Minute 3
  0.4,                                    !- Value Until Time 3
  15,                                     !- Hour 4
  0,                                      !- Minute 4
  0.2,                                    !- Value Until Time 4
  16,                                     !- Hour 5
  0,                                      !- Minute 5
  0.3,                                    !- Value Until Time 5
  19,                                     !- Hour 6
  0,                                      !- Minute 6
  0.5,                                    !- Value Until Time 6
  21,                                     !- Hour 7
  0,                                      !- Minute 7
  0.7,                                    !- Value Until Time 7
  22,                                     !- Hour 8
  0,                                      !- Minute 8
  0.8,                                    !- Value Until Time 8
  24,                                     !- Hour 9
  0,                                      !- Minute 9
  0.9;                                    !- Value Until Time 9

OS:Schedule:Day,
  {639cb30f-4cbd-41c3-899d-4bbd6463748b}, !- Handle
  HotelLarge BLDG_OCC_SCH Winter Design Day, !- Name
  {7dcae064-4b12-422c-8efe-31699a604efb}, !- Schedule Type Limits Name
  ,                                       !- Interpolate to Timestep
  24,                                     !- Hour 1
  0,                                      !- Minute 1
  0;                                      !- Value Until Time 1

OS:Schedule:Ruleset,
  {854ea404-86dd-47c6-99a8-769101080c82}, !- Handle
  HotelLarge ACTIVITY_SCH,                !- Name
  {c8ca9820-edd2-42d8-a9f7-8ee994499f1f}, !- Schedule Type Limits Name
  {68f259c7-4c12-4791-8287-8349b69f95e5}, !- Default Day Schedule Name
  {ce2e042d-7c1b-4907-ac4b-ae8b222efd2f}, !- Summer Design Day Schedule Name
  {91b6b41d-c0f3-483e-8cb9-680eaea13e81}; !- Winter Design Day Schedule Name

OS:Schedule:Day,
  {68f259c7-4c12-4791-8287-8349b69f95e5}, !- Handle
  HotelLarge ACTIVITY_SCH Default,        !- Name
  {c8ca9820-edd2-42d8-a9f7-8ee994499f1f}, !- Schedule Type Limits Name
  ,                                       !- Interpolate to Timestep
  24,                                     !- Hour 1
  0,                                      !- Minute 1
  120;                                    !- Value Until Time 1

OS:Schedule:Day,
  {91b6b41d-c0f3-483e-8cb9-680eaea13e81}, !- Handle
  HotelLarge ACTIVITY_SCH Winter Design Day, !- Name
  {c8ca9820-edd2-42d8-a9f7-8ee994499f1f}, !- Schedule Type Limits Name
  ,                                       !- Interpolate to Timestep
  24,                                     !- Hour 1
  0,                                      !- Minute 1
  120;                                    !- Value Until Time 1

OS:Schedule:Day,
  {ce2e042d-7c1b-4907-ac4b-ae8b222efd2f}, !- Handle
  HotelLarge ACTIVITY_SCH Summer Design Day, !- Name
  {c8ca9820-edd2-42d8-a9f7-8ee994499f1f}, !- Schedule Type Limits Name
  ,                                       !- Interpolate to Timestep
  24,                                     !- Hour 1
  0,                                      !- Minute 1
  120;                                    !- Value Until Time 1

OS:ScheduleTypeLimits,
  {c8ca9820-edd2-42d8-a9f7-8ee994499f1f}, !- Handle
  ActivityLevel,                          !- Name
  0,                                      !- Lower Limit Value
  ,                                       !- Upper Limit Value
  Continuous,                             !- Numeric Type
  ActivityLevel;                          !- Unit Type

OS:Schedule:Ruleset,
  {992fd91e-32e8-4c9d-aae4-d40d7ade72e7}, !- Handle
  HotelLarge BLDG_LIGHT_CORRIDOR_SCH,     !- Name
  {7dcae064-4b12-422c-8efe-31699a604efb}, !- Schedule Type Limits Name
  {bceb76f6-7f64-4103-8e12-bd271cf60527}, !- Default Day Schedule Name
  {cbe0012a-6967-405f-b039-de842ac5be0e}, !- Summer Design Day Schedule Name
  {ec1d0203-f00c-42e0-9002-af7218b0ed59}; !- Winter Design Day Schedule Name

OS:Schedule:Day,
  {bceb76f6-7f64-4103-8e12-bd271cf60527}, !- Handle
  HotelLarge BLDG_LIGHT_CORRIDOR_SCH Default, !- Name
  {7dcae064-4b12-422c-8efe-31699a604efb}, !- Schedule Type Limits Name
  ,                                       !- Interpolate to Timestep
  2,                                      !- Hour 1
  0,                                      !- Minute 1
  0.3,                                    !- Value Until Time 1
  6,                                      !- Hour 2
  0,                                      !- Minute 2
  0.2,                                    !- Value Until Time 2
  7,                                      !- Hour 3
  0,                                      !- Minute 3
  0.3,                                    !- Value Until Time 3
  9,                                      !- Hour 4
  0,                                      !- Minute 4
  0.4,                                    !- Value Until Time 4
  13,                                     !- Hour 5
  0,                                      !- Minute 5
  0.3,                                    !- Value Until Time 5
  18,                                     !- Hour 6
  0,                                      !- Minute 6