
OS:Version,
  {1d3f2e84-7d85-4017-9762-020093ba1e65}, !- Handle
  2.8.1;                                  !- Version Identifier

OS:Facility,
  {e87f8d29-a06d-48e2-85e6-a70760812c02}; !- Handle

OS:Site,
  {287cd7a5-a479-4bd1-ae19-2647ef8d9ab8}, !- Handle
  Buffalo Niagara Intl Ap_NY_USA,         !- Name
  42.8143935638667,                       !- Latitude {deg}
  -78.8496116364065,                      !- Longitude {deg}
  -5,                                     !- Time Zone {hr}
  215,                                    !- Elevation {m}
  City;                                   !- Terrain

OS:SimulationControl,
  {57343bbd-2318-434b-bf39-9fb6be6027b1}, !- Handle
  ,                                       !- Do Zone Sizing Calculation
  ,                                       !- Do System Sizing Calculation
  ,                                       !- Do Plant Sizing Calculation
  No,                                     !- Run Simulation for Sizing Periods
  Yes;                                    !- Run Simulation for Weather File Run Periods

OS:Sizing:Parameters,
  {af8f55dd-02fe-4a90-acf6-0ceb5a7549a5}, !- Handle
  1.25,                                   !- Heating Sizing Factor
  1.15;                                   !- Cooling Sizing Factor

OS:Timestep,
  {56e7717f-2ecd-41bd-970e-ce1fd3ffa4a5}, !- Handle
  2;                                      !- Number of Timesteps per Hour

OS:ShadowCalculation,
  {52390734-ed7e-4335-a868-8773135e366d}, !- Handle
  20,                                     !- Calculation Frequency
  15000;                                  !- Maximum Figures in Shadow Overlap Calculations

OS:HeatBalanceAlgorithm,
  {05dd68b4-ef22-4e79-bfe9-11aa24ce905e}, !- Handle
  ConductionTransferFunction,             !- Algorithm
  200;                                    !- Surface Temperature Upper Limit {C}

OS:RunPeriod,
  {38174772-195f-4198-b183-91d70578cc69}, !- Handle
  Run Period 1,                           !- Name
  6,                                      !- Begin Month
  1,                                      !- Begin Day of Month
  8,                                      !- End Month
  1,                                      !- End Day of Month
  ,                                       !- Use Weather File Holidays and Special Days
  ,                                       !- Use Weather File Daylight Saving Period
  ,                                       !- Apply Weekend Holiday Rule
  ,                                       !- Use Weather File Rain Indicators
  ,                                       !- Use Weather File Snow Indicators
  ;                                       !- Number of Times Runperiod to be Repeated

OS:LifeCycleCost:Parameters,
  {22894873-93de-4e7f-b339-026e4854aac3}, !- Handle
  ,                                       !- Analysis Type
  ,                                       !- Discounting Convention
  ,                                       !- Inflation Approach
  ,                                       !- Real Discount Rate
  ,                                       !- Nominal Discount Rate
  ,                                       !- Inflation
  ,                                       !- Base Date Month
  ,                                       !- Base Date Year
  ,                                       !- Service Date Month
  ,                                       !- Service Date Year
  ;                                       !- Length of Study Period in Years

OS:YearDescription,
  {986b8a1a-b0cf-4919-a1ba-559896e96b2c}, !- Handle
  2019,                                   !- Calendar Year
  ,                                       !- Day of Week for Start Day
  ;                                       !- Is Leap Year

OS:WeatherFile,
  {3f62237b-d47a-45ad-a0f9-423e1e257e83}, !- Handle
  Buffalo Niagara Intl Ap,                !- City
  NY,                                     !- State Province Region
  USA,                                    !- Country
  TMY3,                                   !- Data Source
  725280,                                 !- WMO Number
  42.93,                                  !- Latitude {deg}
  -78.73,                                 !- Longitude {deg}
  -5,                                     !- Time Zone {hr}
  215,                                    !- Elevation {m}
  file:///C:/gitrepos/urbanopt-example-geojson-project/weather/USA_NY_Buffalo-Greater.Buffalo.Intl.AP.725280_TMY3.epw, !- Url
  ;                                       !- Checksum

OS:Site:WaterMainsTemperature,
  {89c8c42a-03a7-4247-8207-82a0226f8968}, !- Handle
  Correlation,                            !- Calculation Method
  ,                                       !- Temperature Schedule Name
  8.96666666666667,                       !- Annual Average Outdoor Air Temperature {C}
  26.2;                                   !- Maximum Difference In Monthly Average Outdoor Air Temperatures {deltaC}

OS:SizingPeriod:DesignDay,
  {4563b4c4-955a-4f38-b483-56d298990f5b}, !- Handle
  Buffalo Niagara Intl Ap Ann Htg 99.6% Condns DB, !- Name
  -16.3,                                  !- Maximum Dry-Bulb Temperature {C}
  0,                                      !- Daily Dry-Bulb Temperature Range {deltaC}
  -16.3,                                  !- Humidity Indicating Conditions at Maximum Dry-Bulb
  98769,                                  !- Barometric Pressure {Pa}
  5.1,                                    !- Wind Speed {m/s}
  270,                                    !- Wind Direction {deg}
  0,                                      !- Sky Clearness
  0,                                      !- Rain Indicator
  0,                                      !- Snow Indicator
  21,                                     !- Day of Month
  1,                                      !- Month
  WinterDesignDay,                        !- Day Type
  0,                                      !- Daylight Saving Time Indicator
  Wetbulb,                                !- Humidity Indicating Type
  ,                                       !- Humidity Indicating Day Schedule Name
  DefaultMultipliers,                     !- Dry-Bulb Temperature Range Modifier Type
  ,                                       !- Dry-Bulb Temperature Range Modifier Schedule Name
  ASHRAEClearSky;                         !- Solar Model Indicator

OS:SizingPeriod:DesignDay,
  {6b9d7ad7-e676-4f91-b795-4ae69495ffee}, !- Handle
  Buffalo Niagara Intl Ap Ann Clg .4% Condns DB=>MWB, !- Name
  30.3,                                   !- Maximum Dry-Bulb Temperature {C}
  9.3,                                    !- Daily Dry-Bulb Temperature Range {deltaC}
  21.8,                                   !- Humidity Indicating Conditions at Maximum Dry-Bulb
  98769,                                  !- Barometric Pressure {Pa}
  5.7,                                    !- Wind Speed {m/s}
  240,                                    !- Wind Direction {deg}
  0,                                      !- Sky Clearness
  0,                                      !- Rain Indicator
  0,                                      !- Snow Indicator
  21,                                     !- Day of Month
  7,                                      !- Month
  SummerDesignDay,                        !- Day Type
  0,                                      !- Daylight Saving Time Indicator
  Wetbulb,                                !- Humidity Indicating Type
  ,                                       !- Humidity Indicating Day Schedule Name
  DefaultMultipliers,                     !- Dry-Bulb Temperature Range Modifier Type
  ,                                       !- Dry-Bulb Temperature Range Modifier Schedule Name
  ASHRAETau,                              !- Solar Model Indicator
  ,                                       !- Beam Solar Day Schedule Name
  ,                                       !- Diffuse Solar Day Schedule Name
  0.462,                                  !- ASHRAE Taub {dimensionless}
  2.001;                                  !- ASHRAE Taud {dimensionless}

OS:SizingPeriod:DesignDay,
  {4f2fe8ea-2b84-41db-b2fc-82f5775081c1}, !- Handle
  Buffalo Niagara Intl Ap Ann Clg .4% Condns WB=>MDB, !- Name
  27.8,                                   !- Maximum Dry-Bulb Temperature {C}
  9.3,                                    !- Daily Dry-Bulb Temperature Range {deltaC}
  23.8,                                   !- Humidity Indicating Conditions at Maximum Dry-Bulb
  98769,                                  !- Barometric Pressure {Pa}
  5.7,                                    !- Wind Speed {m/s}
  240,                                    !- Wind Direction {deg}
  0,                                      !- Sky Clearness
  0,                                      !- Rain Indicator
  0,                                      !- Snow Indicator
  21,                                     !- Day of Month
  7,                                      !- Month
  SummerDesignDay,                        !- Day Type
  0,                                      !- Daylight Saving Time Indicator
  Wetbulb,                                !- Humidity Indicating Type
  ,                                       !- Humidity Indicating Day Schedule Name
  DefaultMultipliers,                     !- Dry-Bulb Temperature Range Modifier Type
  ,                                       !- Dry-Bulb Temperature Range Modifier Schedule Name
  ASHRAETau,                              !- Solar Model Indicator
  ,                                       !- Beam Solar Day Schedule Name
  ,                                       !- Diffuse Solar Day Schedule Name
  0.462,                                  !- ASHRAE Taub {dimensionless}
  2.001;                                  !- ASHRAE Taud {dimensionless}

OS:ClimateZones,
  {3ebaea26-e90a-497f-b499-1ee20fcd7de3}, !- Handle
  ,                                       !- Active Institution
  ,                                       !- Active Year
  ASHRAE,                                 !- Climate Zone Institution Name 1
  ANSI/ASHRAE Standard 169,               !- Climate Zone Document Name 1
  2006,                                   !- Climate Zone Document Year 1
  6A;                                     !- Climate Zone Value 1

OS:RunPeriodControl:DaylightSavingTime,
  {53157b68-0e47-4afd-927e-414f91782b96}, !- Handle
  2nd Sunday in March,                    !- Start Date
  1st Sunday in November;                 !- End Date

OS:People:Definition,
  {7a24ba1b-f175-480b-aaf1-d4c182e142a2}, !- Handle
  MidriseApartment Apartment People Definition, !- Name
  People/Area,                            !- Number of People Calculation Method
  ,                                       !- Number of People {people}
  0.0283090843959466,                     !- People per Space Floor Area {person/m2}
  ,                                       !- Space Floor Area per Person {m2/person}
  0.3;                                    !- Fraction Radiant

OS:Schedule:Ruleset,
  {a21c508a-d50e-4f3d-9a6a-fd19f12e4c71}, !- Handle
  Clothing Schedule,                      !- Name
  {9e95c9c9-b111-44e9-a41c-03939e266c96}, !- Schedule Type Limits Name
  {d9e7dc6f-4655-4d2d-92a6-da91f766c456}; !- Default Day Schedule Name

OS:Schedule:Day,
  {d9e7dc6f-4655-4d2d-92a6-da91f766c456}, !- Handle
  Clothing Schedule Default Winter Clothes, !- Name
  {9e95c9c9-b111-44e9-a41c-03939e266c96}, !- Schedule Type Limits Name
  ,                                       !- Interpolate to Timestep
  24,                                     !- Hour 1
  0,                                      !- Minute 1
  1;                                      !- Value Until Time 1

OS:Schedule:Rule,
  {d6339b26-55fb-4a6c-8c05-846188e14a9d}, !- Handle
  Schedule Rule 1,                        !- Name
  {a21c508a-d50e-4f3d-9a6a-fd19f12e4c71}, !- Schedule Ruleset Name
  0,                                      !- Rule Order
  {858e5178-534c-4be0-be61-6b39872c2806}, !- Day Schedule Name
  ,                                       !- Apply Sunday
  ,                                       !- Apply Monday
  ,                                       !- Apply Tuesday
  ,                                       !- Apply Wednesday
  ,                                       !- Apply Thursday
  ,                                       !- Apply Friday
  ,                                       !- Apply Saturday
  ,                                       !- Apply Holiday
  DateRange,                              !- Date Specification Type
  5,                                      !- Start Month
  1,                                      !- Start Day
  9,                                      !- End Month
  30;                                     !- End Day

OS:Schedule:Day,
  {858e5178-534c-4be0-be61-6b39872c2806}, !- Handle
  Clothing Schedule Summer Clothes,       !- Name
  {9e95c9c9-b111-44e9-a41c-03939e266c96}, !- Schedule Type Limits Name
  ,                                       !- Interpolate to Timestep
  24,                                     !- Hour 1
  0,                                      !- Minute 1
  0.5;                                    !- Value Until Time 1

OS:ScheduleTypeLimits,
  {9e95c9c9-b111-44e9-a41c-03939e266c96}, !- Handle
  ClothingInsulation,                     !- Name
  0,                                      !- Lower Limit Value
  ,                                       !- Upper Limit Value
  Continuous,                             !- Numeric Type
  ClothingInsulation;                     !- Unit Type

OS:Schedule:Ruleset,
  {1161e507-f373-415e-a8b8-9633679778fc}, !- Handle
  Air Velocity Schedule,                  !- Name
  {e8cb652f-4850-42cb-b695-a37b50c41886}, !- Schedule Type Limits Name
  {c8913f9d-69a1-47ec-9021-e84f88b23efa}; !- Default Day Schedule Name

OS:Schedule:Day,
  {c8913f9d-69a1-47ec-9021-e84f88b23efa}, !- Handle
  Air Velocity Schedule Default,          !- Name
  {e8cb652f-4850-42cb-b695-a37b50c41886}, !- Schedule Type Limits Name
  ,                                       !- Interpolate to Timestep
  24,                                     !- Hour 1
  0,                                      !- Minute 1
  0.2;                                    !- Value Until Time 1

OS:ScheduleTypeLimits,
  {e8cb652f-4850-42cb-b695-a37b50c41886}, !- Handle
  Velocity,                               !- Name
  0,                                      !- Lower Limit Value
  ,                                       !- Upper Limit Value
  Continuous,                             !- Numeric Type
  Velocity;                               !- Unit Type

OS:Schedule:Ruleset,
  {c92a0ef9-d497-4bbf-aa78-00707ecccd2d}, !- Handle
  Work Efficiency Schedule,               !- Name
  {f60fd049-4d66-4766-820d-24999de39734}, !- Schedule Type Limits Name
  {6a64c211-e65f-4040-a477-523b20f04fd4}; !- Default Day Schedule Name

OS:Schedule:Day,
  {6a64c211-e65f-4040-a477-523b20f04fd4}, !- Handle
  Work Efficiency Schedule Default,       !- Name
  {f60fd049-4d66-4766-820d-24999de39734}, !- Schedule Type Limits Name
  ,                                       !- Interpolate to Timestep
  24,                                     !- Hour 1
  0,                                      !- Minute 1
  0;                                      !- Value Until Time 1

OS:ScheduleTypeLimits,
  {f60fd049-4d66-4766-820d-24999de39734}, !- Handle
  Fractional,                             !- Name
  0,                                      !- Lower Limit Value
  1,                                      !- Upper Limit Value
  Continuous;                             !- Numeric Type

OS:Lights:Definition,
  {1987da5f-8b22-44f0-ae07-b31ab2e45d27}, !- Handle
  MidriseApartment Apartment Lights Definition, !- Name
  Watts/Area,                             !- Design Level Calculation Method
  ,                                       !- Lighting Level {W}
  11.5173841458794,                       !- Watts per Space Floor Area {W/m2}
  ,                                       !- Watts per Person {W/person}
  0.6,                                    !- Fraction Radiant
  0.2;                                    !- Fraction Visible

OS:AdditionalProperties,
  {c425fa20-4990-4484-b42d-b75def67b659}, !- Handle
  {1987da5f-8b22-44f0-ae07-b31ab2e45d27}, !- Object Name
  lpd_fraction_linear_fluorescent,        !- Feature Name 1
  Double,                                 !- Feature Data Type 1
  1;                                      !- Feature Value 1

OS:Lights:Definition,
  {3d864bc2-8cbe-4c62-9ca1-f237fd931aa2}, !- Handle
  MidriseApartment Apartment Additional Lights Definition, !- Name
  Watts/Area,                             !- Design Level Calculation Method
  ,                                       !- Lighting Level {W}
  2.90625581251162,                       !- Watts per Space Floor Area {W/m2}
  ,                                       !- Watts per Person {W/person}
  0.6,                                    !- Fraction Radiant
  0.2,                                    !- Fraction Visible
  0;                                      !- Return Air Fraction

OS:ElectricEquipment:Definition,
  {28160499-21c9-49f0-9d9d-89bde6c14484}, !- Handle
  MidriseApartment Apartment Elec Equip Definition, !- Name
  Watts/Area,                             !- Design Level Calculation Method
  ,                                       !- Design Level {W}
  6.67,                                   !- Watts per Space Floor Area {W/m2}
  ,                                       !- Watts per Person {W/person}
  ,                                       !- Fraction Latent
  0.5;                                    !- Fraction Radiant

OS:DesignSpecification:OutdoorAir,
  {2ded3ebd-6495-42e5-a829-3f6a1b10bd6f}, !- Handle
  MidriseApartment Apartment Ventilation, !- Name
  Sum,                                    !- Outdoor Air Method
  ,                                       !- Outdoor Air Flow per Person {m3/s-person}
  ,                                       !- Outdoor Air Flow per Floor Area {m3/s-m2}
  ,                                       !- Outdoor Air Flow Rate {m3/s}
  0.35,                                   !- Outdoor Air Flow Air Changes per Hour {1/hr}
  ;                                       !- Outdoor Air Flow Rate Fraction Schedule Name

OS:DefaultScheduleSet,
  {5628bb89-e4a8-4435-a3bc-10dedf3576bc}, !- Handle
  MidriseApartment Apartment Schedule Set, !- Name
  ,                                       !- Hours of Operation Schedule Name
  {3d060e45-942b-4caf-9b1b-4296f215fb74}, !- Number of People Schedule Name
  {0ce3653b-e29c-43ff-9d06-d4fb4258f961}, !- People Activity Level Schedule Name
  {141b2b37-b77d-4995-90a8-07eb3626fe9e}, !- Lighting Schedule Name
  {59a67a54-1243-4c03-a0eb-4196478b849a}, !- Electric Equipment Schedule Name
  ,                                       !- Gas Equipment Schedule Name
  ,                                       !- Hot Water Equipment Schedule Name
  {108b8266-51b3-4b0f-b70e-b1e3bb7f72ba}, !- Infiltration Schedule Name
  ,                                       !- Steam Equipment Schedule Name
  ;                                       !- Other Equipment Schedule Name

OS:Schedule:Ruleset,
  {3d060e45-942b-4caf-9b1b-4296f215fb74}, !- Handle
  ApartmentMidRise OCC_APT_SCH,           !- Name
  {f60fd049-4d66-4766-820d-24999de39734}, !- Schedule Type Limits Name
  {0456d5f4-6c83-4d55-9c37-3e763f228b12}, !- Default Day Schedule Name
  {bda4fdcf-7e0f-41f6-8829-8d098ae30624}, !- Summer Design Day Schedule Name
  {55ae7bf0-a89b-4bc4-9d70-4936b7862fc1}; !- Winter Design Day Schedule Name

OS:Schedule:Day,
  {0456d5f4-6c83-4d55-9c37-3e763f228b12}, !- Handle
  ApartmentMidRise OCC_APT_SCH Default,   !- Name
  {f60fd049-4d66-4766-820d-24999de39734}, !- Schedule Type Limits Name
  ,                                       !- Interpolate to Timestep
  7,                                      !- Hour 1
  0,                                      !- Minute 1
  1,                                      !- Value Until Time 1
  8,                                      !- Hour 2
  0,                                      !- Minute 2
  0.85,                                   !- Value Until Time 2
  9,                                      !- Hour 3
  0,                                      !- Minute 3
  0.39,                                   !- Value Until Time 3
  16,                                     !- Hour 4
  0,                                      !- Minute 4
  0.25,                                   !- Value Until Time 4
  17,                                     !- Hour 5
  0,                                      !- Minute 5
  0.3,                                    !- Value Until Time 5
  18,                                     !- Hour 6
  0,                                      !- Minute 6
  0.52,                                   !- Value Until Time 6
  21,                                     !- Hour 7
  0,                                      !- Minute 7
  0.87,                                   !- Value Until Time 7
  24,                                     !- Hour 8
  0,                                      !- Minute 8
  1;                                      !- Value Until Time 8

OS:Schedule:Day,
  {55ae7bf0-a89b-4bc4-9d70-4936b7862fc1}, !- Handle
  ApartmentMidRise OCC_APT_SCH Winter Design Day, !- Name
  {f60fd049-4d66-4766-820d-24999de39734}, !- Schedule Type Limits Name
  ,                                       !- Interpolate to Timestep
  7,                                      !- Hour 1
  0,                                      !- Minute 1
  1,                                      !- Value Until Time 1
  8,                                      !- Hour 2
  0,                                      !- Minute 2
  0.85,                                   !- Value Until Time 2
  9,                                      !- Hour 3
  0,                                      !- Minute 3
  0.39,                                   !- Value Until Time 3
  16,                                     !- Hour 4
  0,                                      !- Minute 4
  0.25,                                   !- Value Until Time 4
  17,                                     !- Hour 5
  0,                                      !- Minute 5
  0.3,                                    !- Value Until Time 5
  18,                                     !- Hour 6
  0,                                      !- Minute 6
  0.52,                                   !- Value Until Time 6
  21,                                     !- Hour 7
  0,                                      !- Minute 7
  0.87,                                   !- Value Until Time 7
  24,                                     !- Hour 8
  0,                                      !- Minute 8
  1;                                      !- Value Until Time 8

OS:Schedule:Day,
  {bda4fdcf-7e0f-41f6-8829-8d098ae30624}, !- Handle
  ApartmentMidRise OCC_APT_SCH Summer Design Day, !- Name
  {f60fd049-4d66-4766-820d-24999de39734}, !- Schedule Type Limits Name
  ,                                       !- Interpolate to Timestep
  7,                                      !- Hour 1
  0,                                      !- Minute 1
  1,                                      !- Value Until Time 1
  8,                                      !- Hour 2
  0,                                      !- Minute 2
  0.85,                                   !- Value Until Time 2
  9,                                      !- Hour 3
  0,                                      !- Minute 3
  0.39,                                   !- Value Until Time 3
  16,                                     !- Hour 4
  0,                                      !- Minute 4
  0.25,                                   !- Value Until Time 4
  17,                                     !- Hour 5
  0,                                      !- Minute 5
  0.3,                                    !- Value Until Time 5
  18,                                     !- Hour 6
  0,                                      !- Minute 6
  0.52,                                   !- Value Until Time 6
  21,                                     !- Hour 7
  0,                                      !- Minute 7
  0.87,                                   !- Value Until Time 7
  24,                                     !- Hour 8
  0,                                      !- Minute 8
  1;                                      !- Value Until Time 8

OS:Schedule:Ruleset,
  {0ce3653b-e29c-43ff-9d06-d4fb4258f961}, !- Handle
  ApartmentMidRise Activity Schedule,     !- Name
  {e442e4e2-0bc0-4d69-a7d0-8ee1278fde0f}, !- Schedule Type Limits Name
  {7102a133-2b57-420d-8a01-5b0a80e9f7fb}, !- Default Day Schedule Name
  {58efca94-14a2-4cd9-a8d2-1aa9d7a5dc34}, !- Summer Design Day Schedule Name
  {7da10f33-0d4b-41e5-8053-626a621d8f28}; !- Winter Design Day Schedule Name

OS:Schedule:Day,
  {7102a133-2b57-420d-8a01-5b0a80e9f7fb}, !- Handle
  ApartmentMidRise Activity Schedule Default, !- Name
  {e442e4e2-0bc0-4d69-a7d0-8ee1278fde0f}, !- Schedule Type Limits Name
  ,                                       !- Interpolate to Timestep
  24,                                     !- Hour 1
  0,                                      !- Minute 1
  95;                                     !- Value Until Time 1

OS:Schedule:Day,
  {7da10f33-0d4b-41e5-8053-626a621d8f28}, !- Handle
  ApartmentMidRise Activity Schedule Winter Design Day, !- Name
  {e442e4e2-0bc0-4d69-a7d0-8ee1278fde0f}, !- Schedule Type Limits Name
  ,                                       !- Interpolate to Timestep
  24,                                     !- Hour 1
  0,                                      !- Minute 1
  95;                                     !- Value Until Time 1

OS:Schedule:Day,
  {58efca94-14a2-4cd9-a8d2-1aa9d7a5dc34}, !- Handle
  ApartmentMidRise Activity Schedule Summer Design Day, !- Name
  {e442e4e2-0bc0-4d69-a7d0-8ee1278fde0f}, !- Schedule Type Limits Name
  ,                                       !- Interpolate to Timestep
  24,                                     !- Hour 1
  0,                                      !- Minute 1
  95;                                     !- Value Until Time 1

OS:ScheduleTypeLimits,
  {e442e4e2-0bc0-4d69-a7d0-8ee1278fde0f}, !- Handle
  ActivityLevel,                          !- Name
  0,                                      !- Lower Limit Value
  ,                                       !- Upper Limit Value
  Continuous,                             !- Numeric Type
  ActivityLevel;                          !- Unit Type

OS:Schedule:Ruleset,
  {141b2b37-b77d-4995-90a8-07eb3626fe9e}, !- Handle
  ApartmentMidRise LTG_APT_SCH,           !- Name
  {f60fd049-4d66-4766-820d-24999de39734}, !- Schedule Type Limits Name
  {473fa2dc-4bae-4304-b4ec-4ac81b5613c3}, !- Default Day Schedule Name
  {b91bb5b7-e65c-4e50-af55-b6f6f973d329}, !- Summer Design Day Schedule Name
  {b89f974d-51c5-4dbb-b642-1b52d8406e4d}; !- Winter Design Day Schedule Name

OS:Schedule:Day,
  {473fa2dc-4bae-4304-b4ec-4ac81b5613c3}, !- Handle
  ApartmentMidRise LTG_APT_SCH Default,   !- Name
  {f60fd049-4d66-4766-820d-24999de39734}, !- Schedule Type Limits Name
  ,                                       !- Interpolate to Timestep
  4,                                      !- Hour 1
  0,                                      !- Minute 1
  0.011316031,                            !- Value Until Time 1
  5,                                      !- Hour 2
  0,                                      !- Minute 2
  0.033948092,                            !- Value Until Time 2
  6,                                      !- Hour 3
  0,                                      !- Minute 3
  0.0735542,                              !- Value Until Time 3
  7,                                      !- Hour 4
  0,                                      !- Minute 4
  0.079212215,                            !- Value Until Time 4
  8,                                      !- Hour 5
  0,                                      !- Minute 5
  0.0735542,                              !- Value Until Time 5
  9,                                      !- Hour 6
  0,                                      !- Minute 6
  0.033948092,                            !- Value Until Time 6
  15,                                     !- Hour 7
  0,                                      !- Minute 7
  0.022632061,                            !- Value Until Time 7
  16,                                     !- Hour 8
  0,                                      !- Minute 8
  0.039606108,                            !- Value Until Time 8
  17,                                     !- Hour 9
  0,                                      !- Minute 9
  0.079212215,                            !- Value Until Time 9
  18,                                     !- Hour 10
  0,                                      !- Minute 10
  0.113160307,                            !- Value Until Time 10
  19,                                     !- Hour 11
  0,                                      !- Minute 11
  0.152766415,                            !- Value Until Time 11
  21,                                     !- Hour 12
  0,                                      !- Minute 12
  0.181056492,                            !- Value Until Time 12
  22,                                     !- Hour 13
  0,                                      !- Minute 13
  0.124476338,                            !- Value Until Time 13
  23,                                     !- Hour 14
  0,                                      !- Minute 14
  0.067896184,                            !- Value Until Time 14
  24,                                     !- Hour 15
  0,                                      !- Minute 15
  0.028290077;                            !- Value Until Time 15

OS:Schedule:Day,
  {b89f974d-51c5-4dbb-b642-1b52d8406e4d}, !- Handle
  ApartmentMidRise LTG_APT_SCH Winter Design Day, !- Name