
OS:Version,
  {b35ead06-4b38-4f44-8bd6-c1c389908321}, !- Handle
  2.8.1;                                  !- Version Identifier

OS:Facility,
  {36113ee3-7099-4822-9fed-7205bb319753}; !- Handle

OS:Site,
  {cdc682ba-3d26-4314-93c5-1c06dd47339f}, !- Handle
  Buffalo Niagara Intl Ap_NY_USA,         !- Name
  42.8170218879136,                       !- Latitude {deg}
  -78.8491529713029,                      !- Longitude {deg}
  -5,                                     !- Time Zone {hr}
  215,                                    !- Elevation {m}
  City;                                   !- Terrain

OS:SimulationControl,
  {27871fb5-58a8-46be-bfb7-a2dc1c8f7a5a}, !- Handle
  ,                                       !- Do Zone Sizing Calculation
  ,                                       !- Do System Sizing Calculation
  ,                                       !- Do Plant Sizing Calculation
  No,                                     !- Run Simulation for Sizing Periods
  Yes;                                    !- Run Simulation for Weather File Run Periods

OS:Sizing:Parameters,
  {a114b3d5-a706-42a7-9957-0d96e42f8be4}, !- Handle
  1.25,                                   !- Heating Sizing Factor
  1.15;                                   !- Cooling Sizing Factor

OS:Timestep,
  {037be819-0d7a-4bd7-a45c-c26fbf1f52d5}, !- Handle
  2;                                      !- Number of Timesteps per Hour

OS:ShadowCalculation,
  {8e0a35db-636b-441a-98c6-2be467c65293}, !- Handle
  20,                                     !- Calculation Frequency
  15000;                                  !- Maximum Figures in Shadow Overlap Calculations

OS:HeatBalanceAlgorithm,
  {9e02d2ba-043d-4631-8702-3eeba99725d1}, !- Handle
  ConductionTransferFunction,             !- Algorithm
  200;                                    !- Surface Temperature Upper Limit {C}

OS:RunPeriod,
  {eafdd09b-d9e6-4056-98d4-70fd9dcde713}, !- Handle
  Run Period 1,                           !- Name
  6,                                      !- Begin Month
  1,                                      !- Begin Day of Month
  8,                                      !- End Month
  1,                                      !- End Day of Month
  ,                                       !- Use Weather File Holidays and Special Days
  ,                                       !- Use Weather File Daylight Saving Period
  ,                                       !- Apply Weekend Holiday Rule
  ,                                       !- Use Weather File Rain Indicators
  ,                                       !- Use Weather File Snow Indicators
  ;                                       !- Number of Times Runperiod to be Repeated

OS:LifeCycleCost:Parameters,
  {b6953779-08b3-4e6d-933f-717e18663309}, !- Handle
  ,                                       !- Analysis Type
  ,                                       !- Discounting Convention
  ,                                       !- Inflation Approach
  ,                                       !- Real Discount Rate
  ,                                       !- Nominal Discount Rate
  ,                                       !- Inflation
  ,                                       !- Base Date Month
  ,                                       !- Base Date Year
  ,                                       !- Service Date Month
  ,                                       !- Service Date Year
  ;                                       !- Length of Study Period in Years

OS:YearDescription,
  {3da7ff22-d51a-4a27-85d5-f74daaa0a3fd}, !- Handle
  2019,                                   !- Calendar Year
  ,                                       !- Day of Week for Start Day
  ;                                       !- Is Leap Year

OS:WeatherFile,
  {fda848d9-64c7-449c-8b5c-4aa65d0805dd}, !- Handle
  Buffalo Niagara Intl Ap,                !- City
  NY,                                     !- State Province Region
  USA,                                    !- Country
  TMY3,                                   !- Data Source
  725280,                                 !- WMO Number
  42.93,                                  !- Latitude {deg}
  -78.73,                                 !- Longitude {deg}
  -5,                                     !- Time Zone {hr}
  215,                                    !- Elevation {m}
  file:///C:/gitrepos/urbanopt-example-geojson-project/weather/USA_NY_Buffalo-Greater.Buffalo.Intl.AP.725280_TMY3.epw, !- Url
  ;                                       !- Checksum

OS:Site:WaterMainsTemperature,
  {d528a7a0-b702-48af-9c0d-2540284eed99}, !- Handle
  Correlation,                            !- Calculation Method
  ,                                       !- Temperature Schedule Name
  8.96666666666667,                       !- Annual Average Outdoor Air Temperature {C}
  26.2;                                   !- Maximum Difference In Monthly Average Outdoor Air Temperatures {deltaC}

OS:SizingPeriod:DesignDay,
  {36915bdf-41c1-4566-bcb2-432c0011ff7c}, !- Handle
  Buffalo Niagara Intl Ap Ann Htg 99.6% Condns DB, !- Name
  -16.3,                                  !- Maximum Dry-Bulb Temperature {C}
  0,                                      !- Daily Dry-Bulb Temperature Range {deltaC}
  -16.3,                                  !- Humidity Indicating Conditions at Maximum Dry-Bulb
  98769,                                  !- Barometric Pressure {Pa}
  5.1,                                    !- Wind Speed {m/s}
  270,                                    !- Wind Direction {deg}
  0,                                      !- Sky Clearness
  0,                                      !- Rain Indicator
  0,                                      !- Snow Indicator
  21,                                     !- Day of Month
  1,                                      !- Month
  WinterDesignDay,                        !- Day Type
  0,                                      !- Daylight Saving Time Indicator
  Wetbulb,                                !- Humidity Indicating Type
  ,                                       !- Humidity Indicating Day Schedule Name
  DefaultMultipliers,                     !- Dry-Bulb Temperature Range Modifier Type
  ,                                       !- Dry-Bulb Temperature Range Modifier Schedule Name
  ASHRAEClearSky;                         !- Solar Model Indicator

OS:SizingPeriod:DesignDay,
  {e4699458-73fb-4b80-8df6-eca2234f9275}, !- Handle
  Buffalo Niagara Intl Ap Ann Clg .4% Condns DB=>MWB, !- Name
  30.3,                                   !- Maximum Dry-Bulb Temperature {C}
  9.3,                                    !- Daily Dry-Bulb Temperature Range {deltaC}
  21.8,                                   !- Humidity Indicating Conditions at Maximum Dry-Bulb
  98769,                                  !- Barometric Pressure {Pa}
  5.7,                                    !- Wind Speed {m/s}
  240,                                    !- Wind Direction {deg}
  0,                                      !- Sky Clearness
  0,                                      !- Rain Indicator
  0,                                      !- Snow Indicator
  21,                                     !- Day of Month
  7,                                      !- Month
  SummerDesignDay,                        !- Day Type
  0,                                      !- Daylight Saving Time Indicator
  Wetbulb,                                !- Humidity Indicating Type
  ,                                       !- Humidity Indicating Day Schedule Name
  DefaultMultipliers,                     !- Dry-Bulb Temperature Range Modifier Type
  ,                                       !- Dry-Bulb Temperature Range Modifier Schedule Name
  ASHRAETau,                              !- Solar Model Indicator
  ,                                       !- Beam Solar Day Schedule Name
  ,                                       !- Diffuse Solar Day Schedule Name
  0.462,                                  !- ASHRAE Taub {dimensionless}
  2.001;                                  !- ASHRAE Taud {dimensionless}

OS:SizingPeriod:DesignDay,
  {eb2d07b9-0559-4ee8-b535-1d4f39c2792c}, !- Handle
  Buffalo Niagara Intl Ap Ann Clg .4% Condns WB=>MDB, !- Name
  27.8,                                   !- Maximum Dry-Bulb Temperature {C}
  9.3,                                    !- Daily Dry-Bulb Temperature Range {deltaC}
  23.8,                                   !- Humidity Indicating Conditions at Maximum Dry-Bulb
  98769,                                  !- Barometric Pressure {Pa}
  5.7,                                    !- Wind Speed {m/s}
  240,                                    !- Wind Direction {deg}
  0,                                      !- Sky Clearness
  0,                                      !- Rain Indicator
  0,                                      !- Snow Indicator
  21,                                     !- Day of Month
  7,                                      !- Month
  SummerDesignDay,                        !- Day Type
  0,                                      !- Daylight Saving Time Indicator
  Wetbulb,                                !- Humidity Indicating Type
  ,                                       !- Humidity Indicating Day Schedule Name
  DefaultMultipliers,                     !- Dry-Bulb Temperature Range Modifier Type
  ,                                       !- Dry-Bulb Temperature Range Modifier Schedule Name
  ASHRAETau,                              !- Solar Model Indicator
  ,                                       !- Beam Solar Day Schedule Name
  ,                                       !- Diffuse Solar Day Schedule Name
  0.462,                                  !- ASHRAE Taub {dimensionless}
  2.001;                                  !- ASHRAE Taud {dimensionless}

OS:ClimateZones,
  {5e9ceeed-fed0-465e-bda4-0eabacaff0f6}, !- Handle
  ,                                       !- Active Institution
  ,                                       !- Active Year
  ASHRAE,                                 !- Climate Zone Institution Name 1
  ANSI/ASHRAE Standard 169,               !- Climate Zone Document Name 1
  2006,                                   !- Climate Zone Document Year 1
  6A;                                     !- Climate Zone Value 1

OS:RunPeriodControl:DaylightSavingTime,
  {8c8f61c5-debb-4851-89b5-fbae3847641e}, !- Handle
  2nd Sunday in March,                    !- Start Date
  1st Sunday in November;                 !- End Date

OS:People:Definition,
  {9e57b15a-7e31-4de3-b492-0868e983f9ce}, !- Handle
  StripMall Strip mall - type 2 People Definition, !- Name
  People/Area,                            !- Number of People Calculation Method
  ,                                       !- Number of People {people}
  0.0861112833336778,                     !- People per Space Floor Area {person/m2}
  ,                                       !- Space Floor Area per Person {m2/person}
  0.3;                                    !- Fraction Radiant

OS:Schedule:Ruleset,
  {8f7c523e-5b5e-4bf3-b03e-c2773fff260d}, !- Handle
  Clothing Schedule,                      !- Name
  {6d2cde02-03b4-4c72-a19b-bc73a5934f6b}, !- Schedule Type Limits Name
  {17bea0d2-b098-4415-9604-06e0d8bb54a9}; !- Default Day Schedule Name

OS:Schedule:Day,
  {17bea0d2-b098-4415-9604-06e0d8bb54a9}, !- Handle
  Clothing Schedule Default Winter Clothes, !- Name
  {6d2cde02-03b4-4c72-a19b-bc73a5934f6b}, !- Schedule Type Limits Name
  ,                                       !- Interpolate to Timestep
  24,                                     !- Hour 1
  0,                                      !- Minute 1
  1;                                      !- Value Until Time 1

OS:Schedule:Rule,
  {78d987c7-1dfb-44ab-9c8d-d34845d2ee11}, !- Handle
  Schedule Rule 1,                        !- Name
  {8f7c523e-5b5e-4bf3-b03e-c2773fff260d}, !- Schedule Ruleset Name
  0,                                      !- Rule Order
  {d8c5fcb0-20a2-4cca-b1e7-08849d8c3afe}, !- Day Schedule Name
  ,                                       !- Apply Sunday
  ,                                       !- Apply Monday
  ,                                       !- Apply Tuesday
  ,                                       !- Apply Wednesday
  ,                                       !- Apply Thursday
  ,                                       !- Apply Friday
  ,                                       !- Apply Saturday
  ,                                       !- Apply Holiday
  DateRange,                              !- Date Specification Type
  5,                                      !- Start Month
  1,                                      !- Start Day
  9,                                      !- End Month
  30;                                     !- End Day

OS:Schedule:Day,
  {d8c5fcb0-20a2-4cca-b1e7-08849d8c3afe}, !- Handle
  Clothing Schedule Summer Clothes,       !- Name
  {6d2cde02-03b4-4c72-a19b-bc73a5934f6b}, !- Schedule Type Limits Name
  ,                                       !- Interpolate to Timestep
  24,                                     !- Hour 1
  0,                                      !- Minute 1
  0.5;                                    !- Value Until Time 1

OS:ScheduleTypeLimits,
  {6d2cde02-03b4-4c72-a19b-bc73a5934f6b}, !- Handle
  ClothingInsulation,                     !- Name
  0,                                      !- Lower Limit Value
  ,                                       !- Upper Limit Value
  Continuous,                             !- Numeric Type
  ClothingInsulation;                     !- Unit Type

OS:Schedule:Ruleset,
  {d57c15dd-0008-4581-af34-ae248a435e8e}, !- Handle
  Air Velocity Schedule,                  !- Name
  {f06d993f-5f08-4699-9a3a-c560e982a1ff}, !- Schedule Type Limits Name
  {46d84ee8-ad51-4090-abe6-e70d4250f5ed}; !- Default Day Schedule Name

OS:Schedule:Day,
  {46d84ee8-ad51-4090-abe6-e70d4250f5ed}, !- Handle
  Air Velocity Schedule Default,          !- Name
  {f06d993f-5f08-4699-9a3a-c560e982a1ff}, !- Schedule Type Limits Name
  ,                                       !- Interpolate to Timestep
  24,                                     !- Hour 1
  0,                                      !- Minute 1
  0.2;                                    !- Value Until Time 1

OS:ScheduleTypeLimits,
  {f06d993f-5f08-4699-9a3a-c560e982a1ff}, !- Handle
  Velocity,                               !- Name
  0,                                      !- Lower Limit Value
  ,                                       !- Upper Limit Value
  Continuous,                             !- Numeric Type
  Velocity;                               !- Unit Type

OS:Schedule:Ruleset,
  {fad7dfe3-065d-44ef-bc9c-e2dee65cd0de}, !- Handle
  Work Efficiency Schedule,               !- Name
  {b16e04b2-1097-4eb6-8b0e-d13eb5e366f2}, !- Schedule Type Limits Name
  {8271b5e3-d665-426f-a238-47f3242c2d7c}; !- Default Day Schedule Name

OS:Schedule:Day,
  {8271b5e3-d665-426f-a238-47f3242c2d7c}, !- Handle
  Work Efficiency Schedule Default,       !- Name
  {b16e04b2-1097-4eb6-8b0e-d13eb5e366f2}, !- Schedule Type Limits Name
  ,                                       !- Interpolate to Timestep
  24,                                     !- Hour 1
  0,                                      !- Minute 1
  0;                                      !- Value Until Time 1

OS:ScheduleTypeLimits,
  {b16e04b2-1097-4eb6-8b0e-d13eb5e366f2}, !- Handle
  Fractional,                             !- Name
  0,                                      !- Lower Limit Value
  1,                                      !- Upper Limit Value
  Continuous;                             !- Numeric Type

OS:Lights:Definition,
  {8746acd1-6289-47ce-8b17-24889405f98b}, !- Handle
  StripMall Strip mall - type 2 Lights Definition, !- Name
  Watts/Area,                             !- Design Level Calculation Method
  ,                                       !- Lighting Level {W}
  16.1458656250646,                       !- Watts per Space Floor Area {W/m2}
  ,                                       !- Watts per Person {W/person}
  0.7,                                    !- Fraction Radiant
  0.2;                                    !- Fraction Visible

OS:AdditionalProperties,
  {de781995-2988-4659-8889-bbe2da97600b}, !- Handle
  {8746acd1-6289-47ce-8b17-24889405f98b}, !- Object Name
  lpd_fraction_linear_fluorescent,        !- Feature Name 1
  Double,                                 !- Feature Data Type 1
  1;                                      !- Feature Value 1

OS:Lights:Definition,
  {37d876e1-5b93-4a93-8ef6-27fe0dd35d9f}, !- Handle
  StripMall Strip mall - type 2 Additional Lights Definition, !- Name
  Watts/Area,                             !- Design Level Calculation Method
  ,                                       !- Lighting Level {W}
  4.03646640626615,                       !- Watts per Space Floor Area {W/m2}
  ,                                       !- Watts per Person {W/person}
  0.7,                                    !- Fraction Radiant
  0.2,                                    !- Fraction Visible
  0;                                      !- Return Air Fraction

OS:ElectricEquipment:Definition,
  {84d9a03d-4830-49df-b48c-a0831aef4fe8}, !- Handle
  StripMall Strip mall - type 2 Elec Equip Definition, !- Name
  Watts/Area,                             !- Design Level Calculation Method
  ,                                       !- Design Level {W}
  4.30556416668389,                       !- Watts per Space Floor Area {W/m2}
  ,                                       !- Watts per Person {W/person}
  ,                                       !- Fraction Latent
  0.5;                                    !- Fraction Radiant

OS:DesignSpecification:OutdoorAir,
  {dadd8d4d-cb8c-4055-80a5-7369c78152bf}, !- Handle
  StripMall Strip mall - type 2 Ventilation, !- Name
  Sum,                                    !- Outdoor Air Method
  ,                                       !- Outdoor Air Flow per Person {m3/s-person}
  0.001524,                               !- Outdoor Air Flow per Floor Area {m3/s-m2}
  ,                                       !- Outdoor Air Flow Rate {m3/s}
  ,                                       !- Outdoor Air Flow Air Changes per Hour {1/hr}
  ;                                       !- Outdoor Air Flow Rate Fraction Schedule Name

OS:DefaultScheduleSet,
  {5a55a097-5728-4425-8843-8d04b47a5188}, !- Handle
  StripMall Strip mall - type 2 Schedule Set, !- Name
  ,                                       !- Hours of Operation Schedule Name
  {9fa719f5-981a-45e3-b937-3f0e0f0913e8}, !- Number of People Schedule Name
  {b047ffb2-48a5-4bb6-884d-f4d0e537905d}, !- People Activity Level Schedule Name
  {89dd1c98-47a8-45c3-8537-55cf1a2fcbe6}, !- Lighting Schedule Name
  {ff7a23bf-233b-4c13-a449-5b9b5a284502}, !- Electric Equipment Schedule Name
  ,                                       !- Gas Equipment Schedule Name
  ,                                       !- Hot Water Equipment Schedule Name
  {5fbf9be5-4a25-4ac7-9511-e4cf94ae3d4f}, !- Infiltration Schedule Name
  ,                                       !- Steam Equipment Schedule Name
  ;                                       !- Other Equipment Schedule Name

OS:Schedule:Ruleset,
  {9fa719f5-981a-45e3-b937-3f0e0f0913e8}, !- Handle
  RetailStripmall Type2_OCC_SCH,          !- Name
  {b16e04b2-1097-4eb6-8b0e-d13eb5e366f2}, !- Schedule Type Limits Name
  {35c57b69-41aa-4784-a3ea-fb962b6bfb69}, !- Default Day Schedule Name
  {603acfd4-034d-4ea4-b2ad-7298b3478520}, !- Summer Design Day Schedule Name
  {7541dfd8-6137-466e-be83-0677b5d65e49}; !- Winter Design Day Schedule Name

OS:Schedule:Day,
  {35c57b69-41aa-4784-a3ea-fb962b6bfb69}, !- Handle
  RetailStripmall Type2_OCC_SCH Default,  !- Name
  {b16e04b2-1097-4eb6-8b0e-d13eb5e366f2}, !- Schedule Type Limits Name
  ,                                       !- Interpolate to Timestep
  9,                                      !- Hour 1
  0,                                      !- Minute 1
  0,                                      !- Value Until Time 1
  10,                                     !- Hour 2
  0,                                      !- Minute 2
  0.05,                                   !- Value Until Time 2
  11,                                     !- Hour 3
  0,                                      !- Minute 3
  0.1,                                    !- Value Until Time 3
  12,                                     !- Hour 4
  0,                                      !- Minute 4
  0.2,                                    !- Value Until Time 4
  14,                                     !- Hour 5
  0,                                      !- Minute 5
  0.4,                                    !- Value Until Time 5
  15,                                     !- Hour 6
  0,                                      !- Minute 6
  0.3,                                    !- Value Until Time 6
  16,                                     !- Hour 7
  0,                                      !- Minute 7
  0.2,                                    !- Value Until Time 7
  17,                                     !- Hour 8
  0,                                      !- Minute 8
  0.1,                                    !- Value Until Time 8
  18,                                     !- Hour 9
  0,                                      !- Minute 9
  0.05,                                   !- Value Until Time 9
  24,                                     !- Hour 10
  0,                                      !- Minute 10
  0;                                      !- Value Until Time 10

OS:Schedule:Rule,
  {bfdd9809-ca3c-43d7-9fcc-7d4f44ee969c}, !- Handle
  Schedule Rule 2,                        !- Name
  {9fa719f5-981a-45e3-b937-3f0e0f0913e8}, !- Schedule Ruleset Name
  1,                                      !- Rule Order
  {ad8a2498-d90c-4a80-a987-c13f80302cc1}, !- Day Schedule Name
  ,                                       !- Apply Sunday
  ,                                       !- Apply Monday
  ,                                       !- Apply Tuesday
  ,                                       !- Apply Wednesday
  ,                                       !- Apply Thursday
  ,                                       !- Apply Friday
  Yes,                                    !- Apply Saturday
  ,                                       !- Apply Holiday
  DateRange,                              !- Date Specification Type
  1,                                      !- Start Month
  1,                                      !- Start Day
  12,                                     !- End Month
  31;                                     !- End Day

OS:Schedule:Day,
  {ad8a2498-d90c-4a80-a987-c13f80302cc1}, !- Handle
  RetailStripmall Type2_OCC_SCH Sat Day,  !- Name
  {b16e04b2-1097-4eb6-8b0e-d13eb5e366f2}, !- Schedule Type Limits Name
  ,                                       !- Interpolate to Timestep
  8,                                      !- Hour 1
  0,                                      !- Minute 1
  0,                                      !- Value Until Time 1
  9,                                      !- Hour 2
  0,                                      !- Minute 2
  0.05,                                   !- Value Until Time 2
  11,                                     !- Hour 3
  0,                                      !- Minute 3
  0.1,                                    !- Value Until Time 3
  12,                                     !- Hour 4
  0,                                      !- Minute 4
  0.2,                                    !- Value Until Time 4
  13,                                     !- Hour 5
  0,                                      !- Minute 5
  0.4,                                    !- Value Until Time 5
  14,                                     !- Hour 6
  0,                                      !- Minute 6
  0.6,                                    !- Value Until Time 6
  15,                                     !- Hour 7
  0,                                      !- Minute 7
  0.4,                                    !- Value Until Time 7
  18,                                     !- Hour 8
  0,                                      !- Minute 8
  0.3,                                    !- Value Until Time 8
  19,                                     !- Hour 9
  0,                                      !- Minute 9
  0.05,                                   !- Value Until Time 9
  24,                                     !- Hour 10
  0,                                      !- Minute 10
  0;                                      !- Value Until Time 10

OS:Schedule:Day,
  {603acfd4-034d-4ea4-b2ad-7298b3478520}, !- Handle
  RetailStripmall Type2_OCC_SCH Summer Design Day, !- Name
  {b16e04b2-1097-4eb6-8b0e-d13eb5e366f2}, !- Schedule Type Limits Name
  ,                                       !- Interpolate to Timestep
  24,                                     !- Hour 1
  0,                                      !- Minute 1
  1;                                      !- Value Until Time 1

OS:Schedule:Rule,
  {e62399fc-2a4f-4952-bb5e-955fa092d519}, !- Handle
  Schedule Rule 3,                        !- Name
  {9fa719f5-981a-45e3-b937-3f0e0f0913e8}, !- Schedule Ruleset Name
  0,                                      !- Rule Order
  {7b06450c-fa24-429f-b0c5-d86a2fa9ffb4}, !- Day Schedule Name
  ,                                       !- Apply Sunday
  Yes,                                    !- Apply Monday
  Yes,                                    !- Apply Tuesday
  Yes,                                    !- Apply Wednesday
  Yes,                                    !- Apply Thursday
  Yes,                                    !- Apply Friday
  ,                                       !- Apply Saturday
  ,                                       !- Apply Holiday
  DateRange,                              !- Date Specification Type
  1,                                      !- Start Month
  1,                                      !- Start Day
  12,                                     !- End Month
  31;                                     !- End Day

OS:Schedule:Day,
  {7b06450c-fa24-429f-b0c5-d86a2fa9ffb4}, !- Handle
  RetailStripmall Type2_OCC_SCH Wkdy Day, !- Name
  {b16e04b2-1097-4eb6-8b0e-d13eb5e366f2}, !- Schedule Type Limits Name
  ,                                       !- Interpolate to Timestep
  8,                                      !- Hour 1
  0,                                      !- Minute 1
  0,                                      !- Value Until Time 1
  9,                                      !- Hour 2
  0,                                      !- Minute 2
  0.05,                                   !- Value Until Time 2
  12,                                     !- Hour 3
  0,                                      !- Minute 3
  0.1,                                    !- Value Until Time 3
  13,                                     !- Hour 4
  0,                                      !- Minute 4
  0.2,                                    !- Value Until Time 4
  14,                                     !- Hour 5
  0,                                      !- Minute 5
  0.4,                                    !- Value Until Time 5
  15,                                     !- Hour 6
  0,                                      !- Minute 6
  0.3,                                    !- Value Until Time 6
  17,                                     !- Hour 7
  0,                                      !- Minute 7
  0.2,                                    !- Value Until Time 7
  19,                                     !- Hour 8
  0,                                      !- Minute 8
  0.5,                                    !- Value Until Time 8
  20,                                     !- Hour 9
  0,                                      !- Minute 9
  0.2,                                    !- Value Until Time 9
  21,                                     !- Hour 10
  0,                                      !- Minute 10
  0.05,                                   !- Value Until Time 10
  24,                                     !- Hour 11
  0,                                      !- Minute 11
  0;                                      !- Value Until Time 11

OS:Schedule:Day,
  {7541dfd8-6137-466e-be83-0677b5d65e49}, !- Handle
  RetailStripmall Type2_OCC_SCH Winter Design Day, !- Name
  {b16e04b2-1097-4eb6-8b0e-d13eb5e366f2}, !- Schedule Type Limits Name
  ,                                       !- Interpolate to Timestep
  24,                                     !- Hour 1
  0,                                      !- Minute 1
  0;                                      !- Value Until Time 1

OS:Schedule:Ruleset,
  {b047ffb2-48a5-4bb6-884d-f4d0e537905d}, !- Handle
  HotelSmall Activity_Sch,                !- Name
  {17090391-d2ad-42f8-90c3-5b82d1e01495}, !- Schedule Type Limits Name
  {b1db081b-fd69-4b6d-841d-583240544906}, !- Default Day Schedule Name
  {8537dff2-fc55-4451-bfc8-c2f6f761e31a}, !- Summer Design Day Schedule Name
  {916ff89d-2b18-49fa-87ad-8cdb5891fbce}; !- Winter Design Day Schedule Name

OS:Schedule:Day,
  {b1db081b-fd69-4b6d-841d-583240544906}, !- Handle
  HotelSmall Activity_Sch Default,        !- Name
  {17090391-d2ad-42f8-90c3-5b82d1e01495}, !- Schedule Type Limits Name
  ,                                       !- Interpolate to Timestep
  24,                                     !- Hour 1
  0,                                      !- Minute 1
  132;                                    !- Value Until Time 1

OS:Schedule:Day,
  {916ff89d-2b18-49fa-87ad-8cdb5891fbce}, !- Handle
  HotelSmall Activity_Sch Winter Design Day, !- Name
  {17090391-d2ad-42f8-90c3-5b82d1e01495}, !- Schedule Type Limits Name
  ,                                       !- Interpolate to Timestep
  24,                                     !- Hour 1
  0,                                      !- Minute 1
  132;                                    !- Value Until Time 1
