
OS:Version,
  {9b7ed4b0-2047-41b0-a545-ac2a384015db}, !- Handle
  2.8.1;                                  !- Version Identifier

OS:Facility,
  {c4092d58-3bb3-4b37-870f-6d1008b6f955}; !- Handle

OS:Site,
  {0f9e77ab-2a2e-4b0f-9868-37d9e36f9ae4}, !- Handle
  Buffalo Niagara Intl Ap_NY_USA,         !- Name
  42.8197487909843,                       !- Latitude {deg}
  -78.8497235380296,                      !- Longitude {deg}
  -5,                                     !- Time Zone {hr}
  215,                                    !- Elevation {m}
  City;                                   !- Terrain

OS:SimulationControl,
  {aa854cb0-b562-44c1-8fd0-a82f08e5e72c}, !- Handle
  ,                                       !- Do Zone Sizing Calculation
  ,                                       !- Do System Sizing Calculation
  ,                                       !- Do Plant Sizing Calculation
  No,                                     !- Run Simulation for Sizing Periods
  Yes;                                    !- Run Simulation for Weather File Run Periods

OS:Sizing:Parameters,
  {799f965c-81d2-4ade-b739-afc7bd8c1532}, !- Handle
  1.25,                                   !- Heating Sizing Factor
  1.15;                                   !- Cooling Sizing Factor

OS:Timestep,
  {52a4d795-fd6c-4021-a7d4-6591d8ac3758}, !- Handle
  2;                                      !- Number of Timesteps per Hour

OS:ShadowCalculation,
  {f31fa994-004c-4f9f-b59f-b82d94b00ad7}, !- Handle
  20,                                     !- Calculation Frequency
  15000;                                  !- Maximum Figures in Shadow Overlap Calculations

OS:HeatBalanceAlgorithm,
  {d3ca25ae-ac5b-4efa-b725-a763ce13c236}, !- Handle
  ConductionTransferFunction,             !- Algorithm
  200;                                    !- Surface Temperature Upper Limit {C}

OS:RunPeriod,
  {8933aaa4-3c02-4690-bb9d-fbf0f7e195ff}, !- Handle
  Run Period 1,                           !- Name
  6,                                      !- Begin Month
  1,                                      !- Begin Day of Month
  8,                                      !- End Month
  1,                                      !- End Day of Month
  ,                                       !- Use Weather File Holidays and Special Days
  ,                                       !- Use Weather File Daylight Saving Period
  ,                                       !- Apply Weekend Holiday Rule
  ,                                       !- Use Weather File Rain Indicators
  ,                                       !- Use Weather File Snow Indicators
  ;                                       !- Number of Times Runperiod to be Repeated

OS:LifeCycleCost:Parameters,
  {e87dec18-85a2-4d79-a7bd-cbb3326d17a4}, !- Handle
  ,                                       !- Analysis Type
  ,                                       !- Discounting Convention
  ,                                       !- Inflation Approach
  ,                                       !- Real Discount Rate
  ,                                       !- Nominal Discount Rate
  ,                                       !- Inflation
  ,                                       !- Base Date Month
  ,                                       !- Base Date Year
  ,                                       !- Service Date Month
  ,                                       !- Service Date Year
  ;                                       !- Length of Study Period in Years

OS:YearDescription,
  {38bbbc36-b032-48c7-a1a5-a97bcdd7fa11}, !- Handle
  2019,                                   !- Calendar Year
  ,                                       !- Day of Week for Start Day
  ;                                       !- Is Leap Year

OS:WeatherFile,
  {b17ebbb0-0525-483b-ad96-c3975b6adf50}, !- Handle
  Buffalo Niagara Intl Ap,                !- City
  NY,                                     !- State Province Region
  USA,                                    !- Country
  TMY3,                                   !- Data Source
  725280,                                 !- WMO Number
  42.93,                                  !- Latitude {deg}
  -78.73,                                 !- Longitude {deg}
  -5,                                     !- Time Zone {hr}
  215,                                    !- Elevation {m}
  file:///C:/gitrepos/urbanopt-example-geojson-project/weather/USA_NY_Buffalo-Greater.Buffalo.Intl.AP.725280_TMY3.epw, !- Url
  ;                                       !- Checksum

OS:Site:WaterMainsTemperature,
  {06bc53c0-1fd9-499d-89a5-e66cb16ddb65}, !- Handle
  Correlation,                            !- Calculation Method
  ,                                       !- Temperature Schedule Name
  8.96666666666667,                       !- Annual Average Outdoor Air Temperature {C}
  26.2;                                   !- Maximum Difference In Monthly Average Outdoor Air Temperatures {deltaC}

OS:SizingPeriod:DesignDay,
  {f80c779e-47d5-4806-a341-999e72b62961}, !- Handle
  Buffalo Niagara Intl Ap Ann Clg .4% Condns WB=>MDB, !- Name
  27.8,                                   !- Maximum Dry-Bulb Temperature {C}
  9.3,                                    !- Daily Dry-Bulb Temperature Range {deltaC}
  23.8,                                   !- Humidity Indicating Conditions at Maximum Dry-Bulb
  98769,                                  !- Barometric Pressure {Pa}
  5.7,                                    !- Wind Speed {m/s}
  240,                                    !- Wind Direction {deg}
  0,                                      !- Sky Clearness
  0,                                      !- Rain Indicator
  0,                                      !- Snow Indicator
  21,                                     !- Day of Month
  7,                                      !- Month
  SummerDesignDay,                        !- Day Type
  0,                                      !- Daylight Saving Time Indicator
  Wetbulb,                                !- Humidity Indicating Type
  ,                                       !- Humidity Indicating Day Schedule Name
  DefaultMultipliers,                     !- Dry-Bulb Temperature Range Modifier Type
  ,                                       !- Dry-Bulb Temperature Range Modifier Schedule Name
  ASHRAETau,                              !- Solar Model Indicator
  ,                                       !- Beam Solar Day Schedule Name
  ,                                       !- Diffuse Solar Day Schedule Name
  0.462,                                  !- ASHRAE Taub {dimensionless}
  2.001;                                  !- ASHRAE Taud {dimensionless}

OS:SizingPeriod:DesignDay,
  {d70c60dc-6599-47d1-9c5d-727f152aa0e2}, !- Handle
  Buffalo Niagara Intl Ap Ann Htg 99.6% Condns DB, !- Name
  -16.3,                                  !- Maximum Dry-Bulb Temperature {C}
  0,                                      !- Daily Dry-Bulb Temperature Range {deltaC}
  -16.3,                                  !- Humidity Indicating Conditions at Maximum Dry-Bulb
  98769,                                  !- Barometric Pressure {Pa}
  5.1,                                    !- Wind Speed {m/s}
  270,                                    !- Wind Direction {deg}
  0,                                      !- Sky Clearness
  0,                                      !- Rain Indicator
  0,                                      !- Snow Indicator
  21,                                     !- Day of Month
  1,                                      !- Month
  WinterDesignDay,                        !- Day Type
  0,                                      !- Daylight Saving Time Indicator
  Wetbulb,                                !- Humidity Indicating Type
  ,                                       !- Humidity Indicating Day Schedule Name
  DefaultMultipliers,                     !- Dry-Bulb Temperature Range Modifier Type
  ,                                       !- Dry-Bulb Temperature Range Modifier Schedule Name
  ASHRAEClearSky;                         !- Solar Model Indicator

OS:SizingPeriod:DesignDay,
  {26721a5c-89a3-4d85-acbd-b74be2865449}, !- Handle
  Buffalo Niagara Intl Ap Ann Clg .4% Condns DB=>MWB, !- Name
  30.3,                                   !- Maximum Dry-Bulb Temperature {C}
  9.3,                                    !- Daily Dry-Bulb Temperature Range {deltaC}
  21.8,                                   !- Humidity Indicating Conditions at Maximum Dry-Bulb
  98769,                                  !- Barometric Pressure {Pa}
  5.7,                                    !- Wind Speed {m/s}
  240,                                    !- Wind Direction {deg}
  0,                                      !- Sky Clearness
  0,                                      !- Rain Indicator
  0,                                      !- Snow Indicator
  21,                                     !- Day of Month
  7,                                      !- Month
  SummerDesignDay,                        !- Day Type
  0,                                      !- Daylight Saving Time Indicator
  Wetbulb,                                !- Humidity Indicating Type
  ,                                       !- Humidity Indicating Day Schedule Name
  DefaultMultipliers,                     !- Dry-Bulb Temperature Range Modifier Type
  ,                                       !- Dry-Bulb Temperature Range Modifier Schedule Name
  ASHRAETau,                              !- Solar Model Indicator
  ,                                       !- Beam Solar Day Schedule Name
  ,                                       !- Diffuse Solar Day Schedule Name
  0.462,                                  !- ASHRAE Taub {dimensionless}
  2.001;                                  !- ASHRAE Taud {dimensionless}

OS:ClimateZones,
  {97d6a33f-af21-4924-bbb8-b243816e83f6}, !- Handle
  ,                                       !- Active Institution
  ,                                       !- Active Year
  ASHRAE,                                 !- Climate Zone Institution Name 1
  ANSI/ASHRAE Standard 169,               !- Climate Zone Document Name 1
  2006,                                   !- Climate Zone Document Year 1
  6A;                                     !- Climate Zone Value 1

OS:RunPeriodControl:DaylightSavingTime,
  {0e67fcdd-5d79-442d-b719-e03d622fb071}, !- Handle
  2nd Sunday in March,                    !- Start Date
  1st Sunday in November;                 !- End Date

OS:People:Definition,
  {c29cecd6-9eb1-4491-8cb2-c265e6b2c9cc}, !- Handle
  LargeHotel Cafe People Definition,      !- Name
  People/Area,                            !- Number of People Calculation Method
  ,                                       !- Number of People {people}
  0.721181997919551,                      !- People per Space Floor Area {person/m2}
  ,                                       !- Space Floor Area per Person {m2/person}
  0.3;                                    !- Fraction Radiant

OS:Schedule:Ruleset,
  {fb053cfd-e29c-4479-a0f1-09deab2285d5}, !- Handle
  Clothing Schedule,                      !- Name
  {9dd8894a-044d-4974-ae3a-0a97536139cf}, !- Schedule Type Limits Name
  {a65d4691-af53-43ff-84b3-718e9b4396ae}; !- Default Day Schedule Name

OS:Schedule:Day,
  {a65d4691-af53-43ff-84b3-718e9b4396ae}, !- Handle
  Clothing Schedule Default Winter Clothes, !- Name
  {9dd8894a-044d-4974-ae3a-0a97536139cf}, !- Schedule Type Limits Name
  ,                                       !- Interpolate to Timestep
  24,                                     !- Hour 1
  0,                                      !- Minute 1
  1;                                      !- Value Until Time 1

OS:Schedule:Rule,
  {e2f197c0-aefc-4f08-b8fd-a61748d9c4ad}, !- Handle
  Schedule Rule 1,                        !- Name
  {fb053cfd-e29c-4479-a0f1-09deab2285d5}, !- Schedule Ruleset Name
  0,                                      !- Rule Order
  {1101cfe4-efab-4c41-9a82-dee438a8e09c}, !- Day Schedule Name
  ,                                       !- Apply Sunday
  ,                                       !- Apply Monday
  ,                                       !- Apply Tuesday
  ,                                       !- Apply Wednesday
  ,                                       !- Apply Thursday
  ,                                       !- Apply Friday
  ,                                       !- Apply Saturday
  ,                                       !- Apply Holiday
  DateRange,                              !- Date Specification Type
  5,                                      !- Start Month
  1,                                      !- Start Day
  9,                                      !- End Month
  30;                                     !- End Day

OS:Schedule:Day,
  {1101cfe4-efab-4c41-9a82-dee438a8e09c}, !- Handle
  Clothing Schedule Summer Clothes,       !- Name
  {9dd8894a-044d-4974-ae3a-0a97536139cf}, !- Schedule Type Limits Name
  ,                                       !- Interpolate to Timestep
  24,                                     !- Hour 1
  0,                                      !- Minute 1
  0.5;                                    !- Value Until Time 1

OS:ScheduleTypeLimits,
  {9dd8894a-044d-4974-ae3a-0a97536139cf}, !- Handle
  ClothingInsulation,                     !- Name
  0,                                      !- Lower Limit Value
  ,                                       !- Upper Limit Value
  Continuous,                             !- Numeric Type
  ClothingInsulation;                     !- Unit Type

OS:Schedule:Ruleset,
  {936a1791-059a-4e3a-9852-8b913c881121}, !- Handle
  Air Velocity Schedule,                  !- Name
  {d121f9c4-80c1-4d8e-a756-5ca911046277}, !- Schedule Type Limits Name
  {16d8d8f5-aeff-485e-887a-0d2c386c4c27}; !- Default Day Schedule Name

OS:Schedule:Day,
  {16d8d8f5-aeff-485e-887a-0d2c386c4c27}, !- Handle
  Air Velocity Schedule Default,          !- Name
  {d121f9c4-80c1-4d8e-a756-5ca911046277}, !- Schedule Type Limits Name
  ,                                       !- Interpolate to Timestep
  24,                                     !- Hour 1
  0,                                      !- Minute 1
  0.2;                                    !- Value Until Time 1

OS:ScheduleTypeLimits,
  {d121f9c4-80c1-4d8e-a756-5ca911046277}, !- Handle
  Velocity,                               !- Name
  0,                                      !- Lower Limit Value
  ,                                       !- Upper Limit Value
  Continuous,                             !- Numeric Type
  Velocity;                               !- Unit Type

OS:Schedule:Ruleset,
  {8c19667f-1637-4fe0-8e59-871309b5486a}, !- Handle
  Work Efficiency Schedule,               !- Name
  {f1e70b1c-ddfb-4744-ba9f-4372c25d2e73}, !- Schedule Type Limits Name
  {8dc855b2-4937-4b20-8489-6b40aaa9177a}; !- Default Day Schedule Name

OS:Schedule:Day,
  {8dc855b2-4937-4b20-8489-6b40aaa9177a}, !- Handle
  Work Efficiency Schedule Default,       !- Name
  {f1e70b1c-ddfb-4744-ba9f-4372c25d2e73}, !- Schedule Type Limits Name
  ,                                       !- Interpolate to Timestep
  24,                                     !- Hour 1
  0,                                      !- Minute 1
  0;                                      !- Value Until Time 1

OS:ScheduleTypeLimits,
  {f1e70b1c-ddfb-4744-ba9f-4372c25d2e73}, !- Handle
  Fractional,                             !- Name
  0,                                      !- Lower Limit Value
  1,                                      !- Upper Limit Value
  Continuous;                             !- Numeric Type

OS:Lights:Definition,
  {b003f82c-2c5f-44e4-a1b2-27655f5b7a6c}, !- Handle
  LargeHotel Cafe Lights Definition,      !- Name
  Watts/Area,                             !- Design Level Calculation Method
  ,                                       !- Lighting Level {W}
  13.9930835417226,                       !- Watts per Space Floor Area {W/m2}
  ,                                       !- Watts per Person {W/person}
  0.7,                                    !- Fraction Radiant
  0.2;                                    !- Fraction Visible

OS:AdditionalProperties,
  {26a1032b-4c08-4814-b983-8ac504a69c2f}, !- Handle
  {b003f82c-2c5f-44e4-a1b2-27655f5b7a6c}, !- Object Name
  lpd_fraction_linear_fluorescent,        !- Feature Name 1
  Double,                                 !- Feature Data Type 1
  1;                                      !- Feature Value 1

OS:ElectricEquipment:Definition,
  {4cad5d2b-ab1f-4809-8bc4-25a2903e1ad8}, !- Handle
  LargeHotel Cafe Elec Equip Definition,  !- Name
  Watts/Area,                             !- Design Level Calculation Method
  ,                                       !- Design Level {W}
  5.38195520835486,                       !- Watts per Space Floor Area {W/m2}
  ,                                       !- Watts per Person {W/person}
  ,                                       !- Fraction Latent
  0.5;                                    !- Fraction Radiant

OS:DesignSpecification:OutdoorAir,
  {1e6a211e-a042-4279-b95e-c76ef53dee2d}, !- Handle
  LargeHotel Cafe Ventilation,            !- Name
  Sum,                                    !- Outdoor Air Method
  0.009438948864,                         !- Outdoor Air Flow per Person {m3/s-person}
  ,                                       !- Outdoor Air Flow per Floor Area {m3/s-m2}
  ,                                       !- Outdoor Air Flow Rate {m3/s}
  ,                                       !- Outdoor Air Flow Air Changes per Hour {1/hr}
  ;                                       !- Outdoor Air Flow Rate Fraction Schedule Name

OS:DefaultScheduleSet,
  {4de3ed97-9795-4605-9430-c49fd70cc2c1}, !- Handle
  LargeHotel Cafe Schedule Set,           !- Name
  ,                                       !- Hours of Operation Schedule Name
  {4c466928-0cf8-4f90-a3f7-1ff974dbd9f1}, !- Number of People Schedule Name
  {574f115e-5002-4633-8d99-ee1891f6333d}, !- People Activity Level Schedule Name
  {86ecf695-a66b-46f0-9607-4afa7ec1f0fe}, !- Lighting Schedule Name
  {af9d96de-0740-4d1c-8d37-da417482db1e}, !- Electric Equipment Schedule Name
  ,                                       !- Gas Equipment Schedule Name
  ,                                       !- Hot Water Equipment Schedule Name
  {c6321447-d1ea-4484-a1cd-7cbf275d40a4}, !- Infiltration Schedule Name
  ,                                       !- Steam Equipment Schedule Name
  ;                                       !- Other Equipment Schedule Name

OS:Schedule:Ruleset,
  {4c466928-0cf8-4f90-a3f7-1ff974dbd9f1}, !- Handle
  HotelLarge BLDG_OCC_SCH,                !- Name
  {f1e70b1c-ddfb-4744-ba9f-4372c25d2e73}, !- Schedule Type Limits Name
  {32491d21-a8fe-45e2-9db8-41e00ba9e132}, !- Default Day Schedule Name
  {f3e37e57-07ad-47ae-9c70-7ea1cbb029f9}, !- Summer Design Day Schedule Name
  {381deb35-b117-4f85-b057-255fc51f0425}; !- Winter Design Day Schedule Name

OS:Schedule:Day,
  {32491d21-a8fe-45e2-9db8-41e00ba9e132}, !- Handle
  HotelLarge BLDG_OCC_SCH Default,        !- Name
  {f1e70b1c-ddfb-4744-ba9f-4372c25d2e73}, !- Schedule Type Limits Name
  ,                                       !- Interpolate to Timestep
  8,                                      !- Hour 1
  0,                                      !- Minute 1
  0.7,                                    !- Value Until Time 1
  11,                                     !- Hour 2
  0,                                      !- Minute 2
  0.5,                                    !- Value Until Time 2
  13,                                     !- Hour 3
  0,                                      !- Minute 3
  0.3,                                    !- Value Until Time 3
  16,                                     !- Hour 4
  0,                                      !- Minute 4
  0.2,                                    !- Value Until Time 4
  17,                                     !- Hour 5
  0,                                      !- Minute 5
  0.3,                                    !- Value Until Time 5
  19,                                     !- Hour 6
  0,                                      !- Minute 6
  0.4,                                    !- Value Until Time 6
  21,                                     !- Hour 7
  0,                                      !- Minute 7
  0.6,                                    !- Value Until Time 7
  24,                                     !- Hour 8
  0,                                      !- Minute 8
  0.8;                                    !- Value Until Time 8

OS:Schedule:Rule,
  {ce4fa23f-6698-429b-9fd5-5d2b7f5fecea}, !- Handle
  Schedule Rule 2,                        !- Name
  {4c466928-0cf8-4f90-a3f7-1ff974dbd9f1}, !- Schedule Ruleset Name
  1,                                      !- Rule Order
  {dda440c6-e234-47ac-a6b5-18900796076f}, !- Day Schedule Name
  ,                                       !- Apply Sunday
  ,                                       !- Apply Monday
  ,                                       !- Apply Tuesday
  ,                                       !- Apply Wednesday
  ,                                       !- Apply Thursday
  ,                                       !- Apply Friday
  Yes,                                    !- Apply Saturday
  ,                                       !- Apply Holiday
  DateRange,                              !- Date Specification Type
  1,                                      !- Start Month
  1,                                      !- Start Day
  12,                                     !- End Month
  31;                                     !- End Day

OS:Schedule:Day,
  {dda440c6-e234-47ac-a6b5-18900796076f}, !- Handle
  HotelLarge BLDG_OCC_SCH Sat Day,        !- Name
  {f1e70b1c-ddfb-4744-ba9f-4372c25d2e73}, !- Schedule Type Limits Name
  ,                                       !- Interpolate to Timestep
  6,                                      !- Hour 1
  0,                                      !- Minute 1
  0.9,                                    !- Value Until Time 1
  7,                                      !- Hour 2
  0,                                      !- Minute 2
  0.7,                                    !- Value Until Time 2
  9,                                      !- Hour 3
  0,                                      !- Minute 3
  0.5,                                    !- Value Until Time 3
  17,                                     !- Hour 4
  0,                                      !- Minute 4
  0.3,                                    !- Value Until Time 4
  18,                                     !- Hour 5
  0,                                      !- Minute 5
  0.5,                                    !- Value Until Time 5
  21,                                     !- Hour 6
  0,                                      !- Minute 6
  0.6,                                    !- Value Until Time 6
  24,                                     !- Hour 7
  0,                                      !- Minute 7
  0.7;                                    !- Value Until Time 7

OS:Schedule:Day,
  {f3e37e57-07ad-47ae-9c70-7ea1cbb029f9}, !- Handle
  HotelLarge BLDG_OCC_SCH Summer Design Day, !- Name
  {f1e70b1c-ddfb-4744-ba9f-4372c25d2e73}, !- Schedule Type Limits Name
  ,                                       !- Interpolate to Timestep
  24,                                     !- Hour 1
  0,                                      !- Minute 1
  1;                                      !- Value Until Time 1

OS:Schedule:Rule,
  {e547cd2f-3479-4b8c-a9f9-daa3a99ea56c}, !- Handle
  Schedule Rule 3,                        !- Name
  {4c466928-0cf8-4f90-a3f7-1ff974dbd9f1}, !- Schedule Ruleset Name
  0,                                      !- Rule Order
  {899545de-9ff3-406a-a420-44d0a89e3c39}, !- Day Schedule Name
  ,                                       !- Apply Sunday
  Yes,                                    !- Apply Monday
  Yes,                                    !- Apply Tuesday
  Yes,                                    !- Apply Wednesday
  Yes,                                    !- Apply Thursday
  Yes,                                    !- Apply Friday
  ,                                       !- Apply Saturday
  ,                                       !- Apply Holiday
  DateRange,                              !- Date Specification Type
  1,                                      !- Start Month
  1,                                      !- Start Day
  12,                                     !- End Month
  31;                                     !- End Day

OS:Schedule:Day,
  {899545de-9ff3-406a-a420-44d0a89e3c39}, !- Handle
  HotelLarge BLDG_OCC_SCH Wkdy Day,       !- Name
  {f1e70b1c-ddfb-4744-ba9f-4372c25d2e73}, !- Schedule Type Limits Name
  ,                                       !- Interpolate to Timestep
  6,                                      !- Hour 1
  0,                                      !- Minute 1
  0.9,                                    !- Value Until Time 1
  7,                                      !- Hour 2
  0,                                      !- Minute 2
  0.7,                                    !- Value Until Time 2
  9,                                      !- Hour 3
  0,                                      !- Minute 3
  0.4,                                    !- Value Until Time 3
  15,                                     !- Hour 4
  0,                                      !- Minute 4
  0.2,                                    !- Value Until Time 4
  16,                                     !- Hour 5
  0,                                      !- Minute 5
  0.3,                                    !- Value Until Time 5
  19,                                     !- Hour 6
  0,                                      !- Minute 6
  0.5,                                    !- Value Until Time 6
  21,                                     !- Hour 7
  0,                                      !- Minute 7
  0.7,                                    !- Value Until Time 7
  22,                                     !- Hour 8
  0,                                      !- Minute 8
  0.8,                                    !- Value Until Time 8
  24,                                     !- Hour 9
  0,                                      !- Minute 9
  0.9;                                    !- Value Until Time 9

OS:Schedule:Day,
  {381deb35-b117-4f85-b057-255fc51f0425}, !- Handle
  HotelLarge BLDG_OCC_SCH Winter Design Day, !- Name
  {f1e70b1c-ddfb-4744-ba9f-4372c25d2e73}, !- Schedule Type Limits Name
  ,                                       !- Interpolate to Timestep
  24,                                     !- Hour 1
  0,                                      !- Minute 1
  0;                                      !- Value Until Time 1

OS:Schedule:Ruleset,
  {574f115e-5002-4633-8d99-ee1891f6333d}, !- Handle
  HotelLarge ACTIVITY_SCH,                !- Name
  {d24de3e7-b4d8-49c8-aea2-81bb75770276}, !- Schedule Type Limits Name
  {0ea07056-775b-4412-8608-b625a9065cae}, !- Default Day Schedule Name
  {2e786904-e4f1-4ad1-910e-6c43def0d7c2}, !- Summer Design Day Schedule Name
  {ecdc6ac6-d9e5-41a2-9e9f-09b0e36afb59}; !- Winter Design Day Schedule Name

OS:Schedule:Day,
  {0ea07056-775b-4412-8608-b625a9065cae}, !- Handle
  HotelLarge ACTIVITY_SCH Default,        !- Name
  {d24de3e7-b4d8-49c8-aea2-81bb75770276}, !- Schedule Type Limits Name
  ,                                       !- Interpolate to Timestep
  24,                                     !- Hour 1
  0,                                      !- Minute 1
  120;                                    !- Value Until Time 1

OS:Schedule:Day,
  {ecdc6ac6-d9e5-41a2-9e9f-09b0e36afb59}, !- Handle
  HotelLarge ACTIVITY_SCH Winter Design Day, !- Name
  {d24de3e7-b4d8-49c8-aea2-81bb75770276}, !- Schedule Type Limits Name
  ,                                       !- Interpolate to Timestep
  24,                                     !- Hour 1
  0,                                      !- Minute 1
  120;                                    !- Value Until Time 1

OS:Schedule:Day,
  {2e786904-e4f1-4ad1-910e-6c43def0d7c2}, !- Handle
  HotelLarge ACTIVITY_SCH Summer Design Day, !- Name
  {d24de3e7-b4d8-49c8-aea2-81bb75770276}, !- Schedule Type Limits Name
  ,                                       !- Interpolate to Timestep
  24,                                     !- Hour 1
  0,                                      !- Minute 1
  120;                                    !- Value Until Time 1

OS:ScheduleTypeLimits,
  {d24de3e7-b4d8-49c8-aea2-81bb75770276}, !- Handle
  ActivityLevel,                          !- Name
  0,                                      !- Lower Limit Value
  ,                                       !- Upper Limit Value
  Continuous,                             !- Numeric Type
  ActivityLevel;                          !- Unit Type

OS:Schedule:Ruleset,
  {86ecf695-a66b-46f0-9607-4afa7ec1f0fe}, !- Handle
  HotelLarge BLDG_LIGHT_SCH,              !- Name
  {f1e70b1c-ddfb-4744-ba9f-4372c25d2e73}, !- Schedule Type Limits Name
  {af23d02a-d8f9-40e9-89d2-ca74fecf5e39}, !- Default Day Schedule Name
  {d87adebc-3403-42b1-b8d0-9187f26039bb}, !- Summer Design Day Schedule Name
  {85be0cab-bc14-4010-b1ef-3baad4ede21b}; !- Winter Design Day Schedule Name

OS:Schedule:Day,
  {af23d02a-d8f9-40e9-89d2-ca74fecf5e39}, !- Handle
  HotelLarge BLDG_LIGHT_SCH Default,      !- Name
  {f1e70b1c-ddfb-4744-ba9f-4372c25d2e73}, !- Schedule Type Limits Name
  ,                                       !- Interpolate to Timestep
  2,                                      !- Hour 1
  0,                                      !- Minute 1
  0.3,                                    !- Value Until Time 1
  6,                                      !- Hour 2
  0,                                      !- Minute 2
  0.2,                                    !- Value Until Time 2
  7,                                      !- Hour 3