
OS:Version,
  {04712272-f16d-4e74-8270-c989fd45c606}, !- Handle
  2.8.1;                                  !- Version Identifier

OS:Facility,
  {c1dd118f-6988-4bbb-9649-965c3ba2984d}; !- Handle

OS:Site,
  {68ab4917-d918-4ea4-b124-f200ae6f2d04}, !- Handle
  Buffalo Niagara Intl Ap_NY_USA,         !- Name
  42.8132927350264,                       !- Latitude {deg}
  -78.8501565714965,                      !- Longitude {deg}
  -5,                                     !- Time Zone {hr}
  215,                                    !- Elevation {m}
  City;                                   !- Terrain

OS:SimulationControl,
  {feb2e90d-8bdc-4941-ba72-269e5be745fe}, !- Handle
  ,                                       !- Do Zone Sizing Calculation
  ,                                       !- Do System Sizing Calculation
  ,                                       !- Do Plant Sizing Calculation
  No,                                     !- Run Simulation for Sizing Periods
  Yes;                                    !- Run Simulation for Weather File Run Periods

OS:Sizing:Parameters,
  {4c1b6742-c26a-4764-9906-fbb04d15c97a}, !- Handle
  1.25,                                   !- Heating Sizing Factor
  1.15;                                   !- Cooling Sizing Factor

OS:Timestep,
  {7046c4d5-4aaf-49a2-8bd7-be821e20b31f}, !- Handle
  2;                                      !- Number of Timesteps per Hour

OS:ShadowCalculation,
  {7d00b085-d8ab-49d1-bacb-3a736987d6b1}, !- Handle
  20,                                     !- Calculation Frequency
  15000;                                  !- Maximum Figures in Shadow Overlap Calculations

OS:HeatBalanceAlgorithm,
  {5166098b-6a32-4db1-a45f-0ee719503ef5}, !- Handle
  ConductionTransferFunction,             !- Algorithm
  200;                                    !- Surface Temperature Upper Limit {C}

OS:RunPeriod,
  {38516407-768f-4735-a5de-3b33f9433e91}, !- Handle
  Run Period 1,                           !- Name
  6,                                      !- Begin Month
  1,                                      !- Begin Day of Month
  8,                                      !- End Month
  1,                                      !- End Day of Month
  ,                                       !- Use Weather File Holidays and Special Days
  ,                                       !- Use Weather File Daylight Saving Period
  ,                                       !- Apply Weekend Holiday Rule
  ,                                       !- Use Weather File Rain Indicators
  ,                                       !- Use Weather File Snow Indicators
  ;                                       !- Number of Times Runperiod to be Repeated

OS:LifeCycleCost:Parameters,
  {687d5511-2be8-44c3-a235-d56eb9c44848}, !- Handle
  ,                                       !- Analysis Type
  ,                                       !- Discounting Convention
  ,                                       !- Inflation Approach
  ,                                       !- Real Discount Rate
  ,                                       !- Nominal Discount Rate
  ,                                       !- Inflation
  ,                                       !- Base Date Month
  ,                                       !- Base Date Year
  ,                                       !- Service Date Month
  ,                                       !- Service Date Year
  ;                                       !- Length of Study Period in Years

OS:YearDescription,
  {a785a8c2-ce0d-445e-88b9-654b2ded50f5}, !- Handle
  2019,                                   !- Calendar Year
  ,                                       !- Day of Week for Start Day
  ;                                       !- Is Leap Year

OS:WeatherFile,
  {d3a40730-0f6c-4b58-a498-7763a1ef6035}, !- Handle
  Buffalo Niagara Intl Ap,                !- City
  NY,                                     !- State Province Region
  USA,                                    !- Country
  TMY3,                                   !- Data Source
  725280,                                 !- WMO Number
  42.93,                                  !- Latitude {deg}
  -78.73,                                 !- Longitude {deg}
  -5,                                     !- Time Zone {hr}
  215,                                    !- Elevation {m}
  file:///C:/gitrepos/urbanopt-example-geojson-project/weather/USA_NY_Buffalo-Greater.Buffalo.Intl.AP.725280_TMY3.epw, !- Url
  ;                                       !- Checksum

OS:Site:WaterMainsTemperature,
  {222246d2-632e-456b-889d-da98f86ad118}, !- Handle
  Correlation,                            !- Calculation Method
  ,                                       !- Temperature Schedule Name
  8.96666666666667,                       !- Annual Average Outdoor Air Temperature {C}
  26.2;                                   !- Maximum Difference In Monthly Average Outdoor Air Temperatures {deltaC}

OS:SizingPeriod:DesignDay,
  {1e6999ab-aa92-4c3d-b5ba-ff6dd90e598c}, !- Handle
  Buffalo Niagara Intl Ap Ann Htg 99.6% Condns DB, !- Name
  -16.3,                                  !- Maximum Dry-Bulb Temperature {C}
  0,                                      !- Daily Dry-Bulb Temperature Range {deltaC}
  -16.3,                                  !- Humidity Indicating Conditions at Maximum Dry-Bulb
  98769,                                  !- Barometric Pressure {Pa}
  5.1,                                    !- Wind Speed {m/s}
  270,                                    !- Wind Direction {deg}
  0,                                      !- Sky Clearness
  0,                                      !- Rain Indicator
  0,                                      !- Snow Indicator
  21,                                     !- Day of Month
  1,                                      !- Month
  WinterDesignDay,                        !- Day Type
  0,                                      !- Daylight Saving Time Indicator
  Wetbulb,                                !- Humidity Indicating Type
  ,                                       !- Humidity Indicating Day Schedule Name
  DefaultMultipliers,                     !- Dry-Bulb Temperature Range Modifier Type
  ,                                       !- Dry-Bulb Temperature Range Modifier Schedule Name
  ASHRAEClearSky;                         !- Solar Model Indicator

OS:SizingPeriod:DesignDay,
  {88373cc9-c320-4e7b-9928-b571b51ee6e2}, !- Handle
  Buffalo Niagara Intl Ap Ann Clg .4% Condns WB=>MDB, !- Name
  27.8,                                   !- Maximum Dry-Bulb Temperature {C}
  9.3,                                    !- Daily Dry-Bulb Temperature Range {deltaC}
  23.8,                                   !- Humidity Indicating Conditions at Maximum Dry-Bulb
  98769,                                  !- Barometric Pressure {Pa}
  5.7,                                    !- Wind Speed {m/s}
  240,                                    !- Wind Direction {deg}
  0,                                      !- Sky Clearness
  0,                                      !- Rain Indicator
  0,                                      !- Snow Indicator
  21,                                     !- Day of Month
  7,                                      !- Month
  SummerDesignDay,                        !- Day Type
  0,                                      !- Daylight Saving Time Indicator
  Wetbulb,                                !- Humidity Indicating Type
  ,                                       !- Humidity Indicating Day Schedule Name
  DefaultMultipliers,                     !- Dry-Bulb Temperature Range Modifier Type
  ,                                       !- Dry-Bulb Temperature Range Modifier Schedule Name
  ASHRAETau,                              !- Solar Model Indicator
  ,                                       !- Beam Solar Day Schedule Name
  ,                                       !- Diffuse Solar Day Schedule Name
  0.462,                                  !- ASHRAE Taub {dimensionless}
  2.001;                                  !- ASHRAE Taud {dimensionless}

OS:SizingPeriod:DesignDay,
  {cb0ae4cf-751d-4891-ab5b-8ad2980477de}, !- Handle
  Buffalo Niagara Intl Ap Ann Clg .4% Condns DB=>MWB, !- Name
  30.3,                                   !- Maximum Dry-Bulb Temperature {C}
  9.3,                                    !- Daily Dry-Bulb Temperature Range {deltaC}
  21.8,                                   !- Humidity Indicating Conditions at Maximum Dry-Bulb
  98769,                                  !- Barometric Pressure {Pa}
  5.7,                                    !- Wind Speed {m/s}
  240,                                    !- Wind Direction {deg}
  0,                                      !- Sky Clearness
  0,                                      !- Rain Indicator
  0,                                      !- Snow Indicator
  21,                                     !- Day of Month
  7,                                      !- Month
  SummerDesignDay,                        !- Day Type
  0,                                      !- Daylight Saving Time Indicator
  Wetbulb,                                !- Humidity Indicating Type
  ,                                       !- Humidity Indicating Day Schedule Name
  DefaultMultipliers,                     !- Dry-Bulb Temperature Range Modifier Type
  ,                                       !- Dry-Bulb Temperature Range Modifier Schedule Name
  ASHRAETau,                              !- Solar Model Indicator
  ,                                       !- Beam Solar Day Schedule Name
  ,                                       !- Diffuse Solar Day Schedule Name
  0.462,                                  !- ASHRAE Taub {dimensionless}
  2.001;                                  !- ASHRAE Taud {dimensionless}

OS:ClimateZones,
  {1ff17318-dfa6-4978-8a41-34e4d2af8746}, !- Handle
  ,                                       !- Active Institution
  ,                                       !- Active Year
  ASHRAE,                                 !- Climate Zone Institution Name 1
  ANSI/ASHRAE Standard 169,               !- Climate Zone Document Name 1
  2006,                                   !- Climate Zone Document Year 1
  6A;                                     !- Climate Zone Value 1

OS:RunPeriodControl:DaylightSavingTime,
  {373d48e8-f9b6-4189-995e-53bf799e39e9}, !- Handle
  2nd Sunday in March,                    !- Start Date
  1st Sunday in November;                 !- End Date

OS:Lights:Definition,
  {84fd909d-6648-4b53-8388-ef1b916d851d}, !- Handle
  MidriseApartment Corridor Lights Definition, !- Name
  Watts/Area,                             !- Design Level Calculation Method
  ,                                       !- Lighting Level {W}
  5.38195520835486,                       !- Watts per Space Floor Area {W/m2}
  ,                                       !- Watts per Person {W/person}
  0.6,                                    !- Fraction Radiant
  0.2;                                    !- Fraction Visible

OS:AdditionalProperties,
  {8bdc35e3-2374-40aa-a068-49241d6c91ab}, !- Handle
  {84fd909d-6648-4b53-8388-ef1b916d851d}, !- Object Name
  lpd_fraction_linear_fluorescent,        !- Feature Name 1
  Double,                                 !- Feature Data Type 1
  1;                                      !- Feature Value 1

OS:DesignSpecification:OutdoorAir,
  {71385743-51e7-48cb-bc34-7669ebe4afc2}, !- Handle
  MidriseApartment Corridor Ventilation,  !- Name
  ,                                       !- Outdoor Air Method
  0,                                      !- Outdoor Air Flow per Person {m3/s-person}
  0,                                      !- Outdoor Air Flow per Floor Area {m3/s-m2}
  ,                                       !- Outdoor Air Flow Rate {m3/s}
  0,                                      !- Outdoor Air Flow Air Changes per Hour {1/hr}
  ;                                       !- Outdoor Air Flow Rate Fraction Schedule Name

OS:DefaultScheduleSet,
  {36c30bbc-a006-420e-9d76-56e961dd7772}, !- Handle
  MidriseApartment Corridor Schedule Set, !- Name
  ,                                       !- Hours of Operation Schedule Name
  {2f6c94f5-ca6f-4391-a1bf-0069bf104555}, !- Number of People Schedule Name
  ,                                       !- People Activity Level Schedule Name
  {baa3a02f-1b84-48f7-9052-20d80ca53a37}, !- Lighting Schedule Name
  {3cb14b30-6a4e-466b-8255-aacef8981b76}, !- Electric Equipment Schedule Name
  ,                                       !- Gas Equipment Schedule Name
  ,                                       !- Hot Water Equipment Schedule Name
  {e0de9af6-dadb-4a27-99f2-a1210fee7f06}, !- Infiltration Schedule Name
  ,                                       !- Steam Equipment Schedule Name
  ;                                       !- Other Equipment Schedule Name

OS:Schedule:Ruleset,
  {2f6c94f5-ca6f-4391-a1bf-0069bf104555}, !- Handle
  ApartmentMidRise All Off,               !- Name
  {7417db74-4ac8-4012-a341-cf979318ff12}, !- Schedule Type Limits Name
  {61db69ce-dff7-4eda-beea-3d2ec3de5882}, !- Default Day Schedule Name
  {355eeb00-9532-4553-ae7f-169390eed702}, !- Summer Design Day Schedule Name
  {bf4abb00-20b4-420c-8a7a-75a1dff101bc}; !- Winter Design Day Schedule Name

OS:Schedule:Day,
  {61db69ce-dff7-4eda-beea-3d2ec3de5882}, !- Handle
  ApartmentMidRise All Off Default,       !- Name
  {7417db74-4ac8-4012-a341-cf979318ff12}, !- Schedule Type Limits Name
  ,                                       !- Interpolate to Timestep
  24,                                     !- Hour 1
  0,                                      !- Minute 1
  0;                                      !- Value Until Time 1

OS:Schedule:Day,
  {bf4abb00-20b4-420c-8a7a-75a1dff101bc}, !- Handle
  ApartmentMidRise All Off Winter Design Day, !- Name
  {7417db74-4ac8-4012-a341-cf979318ff12}, !- Schedule Type Limits Name
  ,                                       !- Interpolate to Timestep
  24,                                     !- Hour 1
  0,                                      !- Minute 1
  0;                                      !- Value Until Time 1

OS:Schedule:Day,
  {355eeb00-9532-4553-ae7f-169390eed702}, !- Handle
  ApartmentMidRise All Off Summer Design Day, !- Name
  {7417db74-4ac8-4012-a341-cf979318ff12}, !- Schedule Type Limits Name
  ,                                       !- Interpolate to Timestep
  24,                                     !- Hour 1
  0,                                      !- Minute 1
  0;                                      !- Value Until Time 1

OS:ScheduleTypeLimits,
  {7417db74-4ac8-4012-a341-cf979318ff12}, !- Handle
  Fractional,                             !- Name
  0,                                      !- Lower Limit Value
  1,                                      !- Upper Limit Value
  Continuous;                             !- Numeric Type

OS:Schedule:Ruleset,
  {baa3a02f-1b84-48f7-9052-20d80ca53a37}, !- Handle
  ApartmentMidRise LTG_COR_SCH_2004_2007, !- Name
  {7417db74-4ac8-4012-a341-cf979318ff12}, !- Schedule Type Limits Name
  {ebee9983-5d4c-4441-9694-7547cf913cc7}, !- Default Day Schedule Name
  {477272cb-6122-46b7-b73d-2ebeb748c576}, !- Summer Design Day Schedule Name
  {0e9004ae-1b23-4f42-9e54-f416a63a8354}; !- Winter Design Day Schedule Name

OS:Schedule:Day,
  {ebee9983-5d4c-4441-9694-7547cf913cc7}, !- Handle
  ApartmentMidRise LTG_COR_SCH_2004_2007 Default, !- Name
  {7417db74-4ac8-4012-a341-cf979318ff12}, !- Schedule Type Limits Name
  ,                                       !- Interpolate to Timestep
  24,                                     !- Hour 1
  0,                                      !- Minute 1
  1;                                      !- Value Until Time 1

OS:Schedule:Day,
  {0e9004ae-1b23-4f42-9e54-f416a63a8354}, !- Handle
  ApartmentMidRise LTG_COR_SCH_2004_2007 Winter Design Day, !- Name
  {7417db74-4ac8-4012-a341-cf979318ff12}, !- Schedule Type Limits Name
  ,                                       !- Interpolate to Timestep
  24,                                     !- Hour 1
  0,                                      !- Minute 1
  1;                                      !- Value Until Time 1

OS:Schedule:Day,
  {477272cb-6122-46b7-b73d-2ebeb748c576}, !- Handle
  ApartmentMidRise LTG_COR_SCH_2004_2007 Summer Design Day, !- Name
  {7417db74-4ac8-4012-a341-cf979318ff12}, !- Schedule Type Limits Name
  ,                                       !- Interpolate to Timestep
  24,                                     !- Hour 1
  0,                                      !- Minute 1
  1;                                      !- Value Until Time 1

OS:Schedule:Ruleset,
  {3cb14b30-6a4e-466b-8255-aacef8981b76}, !- Handle
  ApartmentMidRise BLDG_ELEVATORS,        !- Name
  {7417db74-4ac8-4012-a341-cf979318ff12}, !- Schedule Type Limits Name
  {42a6d859-8958-4cf6-ac65-8970b75b2631}, !- Default Day Schedule Name
  {4b13a551-06b0-4482-9517-f7c295298455}, !- Summer Design Day Schedule Name
  {ffbb9149-3f07-4f34-a9b8-ec0cd0cf14e7}; !- Winter Design Day Schedule Name

OS:Schedule:Day,
  {42a6d859-8958-4cf6-ac65-8970b75b2631}, !- Handle
  ApartmentMidRise BLDG_ELEVATORS Default, !- Name
  {7417db74-4ac8-4012-a341-cf979318ff12}, !- Schedule Type Limits Name
  ,                                       !- Interpolate to Timestep
  4,                                      !- Hour 1
  0,                                      !- Minute 1
  0.05,                                   !- Value Until Time 1
  5,                                      !- Hour 2
  0,                                      !- Minute 2
  0.1,                                    !- Value Until Time 2
  6,                                      !- Hour 3
  0,                                      !- Minute 3
  0.2,                                    !- Value Until Time 3
  7,                                      !- Hour 4
  0,                                      !- Minute 4
  0.4,                                    !- Value Until Time 4
  9,                                      !- Hour 5
  0,                                      !- Minute 5
  0.5,                                    !- Value Until Time 5
  10,                                     !- Hour 6
  0,                                      !- Minute 6
  0.35,                                   !- Value Until Time 6
  16,                                     !- Hour 7
  0,                                      !- Minute 7
  0.15,                                   !- Value Until Time 7
  17,                                     !- Hour 8
  0,                                      !- Minute 8
  0.35,                                   !- Value Until Time 8
  19,                                     !- Hour 9
  0,                                      !- Minute 9
  0.5,                                    !- Value Until Time 9
  21,                                     !- Hour 10
  0,                                      !- Minute 10
  0.4,                                    !- Value Until Time 10
  22,                                     !- Hour 11
  0,                                      !- Minute 11
  0.3,                                    !- Value Until Time 11
  23,                                     !- Hour 12
  0,                                      !- Minute 12
  0.2,                                    !- Value Until Time 12
  24,                                     !- Hour 13
  0,                                      !- Minute 13
  0.1;                                    !- Value Until Time 13

OS:Schedule:Day,
  {4b13a551-06b0-4482-9517-f7c295298455}, !- Handle
  ApartmentMidRise BLDG_ELEVATORS Summer Design Day, !- Name
  {7417db74-4ac8-4012-a341-cf979318ff12}, !- Schedule Type Limits Name
  ,                                       !- Interpolate to Timestep
  24,                                     !- Hour 1
  0,                                      !- Minute 1
  0.5;                                    !- Value Until Time 1

OS:Schedule:Day,
  {ffbb9149-3f07-4f34-a9b8-ec0cd0cf14e7}, !- Handle
  ApartmentMidRise BLDG_ELEVATORS Winter Design Day, !- Name
  {7417db74-4ac8-4012-a341-cf979318ff12}, !- Schedule Type Limits Name
  ,                                       !- Interpolate to Timestep
  24,                                     !- Hour 1
  0,                                      !- Minute 1
  0.05;                                   !- Value Until Time 1

OS:Schedule:Ruleset,
  {e0de9af6-dadb-4a27-99f2-a1210fee7f06}, !- Handle
  ApartmentMidRise INF_COR_SCH,           !- Name
  {7417db74-4ac8-4012-a341-cf979318ff12}, !- Schedule Type Limits Name
  {d9e0fc91-8ec9-4fb1-b349-00ec423abb6d}, !- Default Day Schedule Name
  {b3c7925c-7650-4bd9-aefb-7244ac13d477}, !- Summer Design Day Schedule Name
  {9ef5bb01-240c-4ff6-aa1b-7ee931317129}; !- Winter Design Day Schedule Name

OS:Schedule:Day,
  {d9e0fc91-8ec9-4fb1-b349-00ec423abb6d}, !- Handle
  ApartmentMidRise INF_COR_SCH Default,   !- Name
  {7417db74-4ac8-4012-a341-cf979318ff12}, !- Schedule Type Limits Name
  ,                                       !- Interpolate to Timestep
  24,                                     !- Hour 1
  0,                                      !- Minute 1
  1;                                      !- Value Until Time 1

OS:Schedule:Day,
  {9ef5bb01-240c-4ff6-aa1b-7ee931317129}, !- Handle
  ApartmentMidRise INF_COR_SCH Winter Design Day, !- Name
  {7417db74-4ac8-4012-a341-cf979318ff12}, !- Schedule Type Limits Name
  ,                                       !- Interpolate to Timestep
  24,                                     !- Hour 1
  0,                                      !- Minute 1
  1;                                      !- Value Until Time 1

OS:Schedule:Day,
  {b3c7925c-7650-4bd9-aefb-7244ac13d477}, !- Handle
  ApartmentMidRise INF_COR_SCH Summer Design Day, !- Name
  {7417db74-4ac8-4012-a341-cf979318ff12}, !- Schedule Type Limits Name
  ,                                       !- Interpolate to Timestep
  24,                                     !- Hour 1
  0,                                      !- Minute 1
  1;                                      !- Value Until Time 1

OS:People:Definition,
  {1a29784f-5b8f-4bf3-80d0-8425378a8de9}, !- Handle
  MidriseApartment Apartment People Definition, !- Name
  People/Area,                            !- Number of People Calculation Method
  ,                                       !- Number of People {people}
  0.0283090843959466,                     !- People per Space Floor Area {person/m2}
  ,                                       !- Space Floor Area per Person {m2/person}
  0.3;                                    !- Fraction Radiant

OS:Schedule:Ruleset,
  {fa8d86a1-5b0f-4de7-8a57-ef5e4345f7ca}, !- Handle
  Clothing Schedule,                      !- Name
  {20587730-dd0c-47f2-a50f-9f5f326fc8da}, !- Schedule Type Limits Name
  {882765a8-b5eb-40ac-a4dd-59cc87db54c7}; !- Default Day Schedule Name

OS:Schedule:Day,
  {882765a8-b5eb-40ac-a4dd-59cc87db54c7}, !- Handle
  Clothing Schedule Default Winter Clothes, !- Name
  {20587730-dd0c-47f2-a50f-9f5f326fc8da}, !- Schedule Type Limits Name
  ,                                       !- Interpolate to Timestep
  24,                                     !- Hour 1
  0,                                      !- Minute 1
  1;                                      !- Value Until Time 1

OS:Schedule:Rule,
  {9c1e21fb-e670-4fb1-92ed-421daf14f7f9}, !- Handle
  Schedule Rule 1,                        !- Name
  {fa8d86a1-5b0f-4de7-8a57-ef5e4345f7ca}, !- Schedule Ruleset Name
  0,                                      !- Rule Order
  {45cc71a9-8fba-4c73-af1b-bcf87d4600b6}, !- Day Schedule Name
  ,                                       !- Apply Sunday
  ,                                       !- Apply Monday
  ,                                       !- Apply Tuesday
  ,                                       !- Apply Wednesday
  ,                                       !- Apply Thursday
  ,                                       !- Apply Friday
  ,                                       !- Apply Saturday
  ,                                       !- Apply Holiday
  DateRange,                              !- Date Specification Type
  5,                                      !- Start Month
  1,                                      !- Start Day
  9,                                      !- End Month
  30;                                     !- End Day

OS:Schedule:Day,
  {45cc71a9-8fba-4c73-af1b-bcf87d4600b6}, !- Handle
  Clothing Schedule Summer Clothes,       !- Name
  {20587730-dd0c-47f2-a50f-9f5f326fc8da}, !- Schedule Type Limits Name
  ,                                       !- Interpolate to Timestep
  24,                                     !- Hour 1
  0,                                      !- Minute 1
  0.5;                                    !- Value Until Time 1

OS:ScheduleTypeLimits,
  {20587730-dd0c-47f2-a50f-9f5f326fc8da}, !- Handle
  ClothingInsulation,                     !- Name
  0,                                      !- Lower Limit Value
  ,                                       !- Upper Limit Value
  Continuous,                             !- Numeric Type
  ClothingInsulation;                     !- Unit Type

OS:Schedule:Ruleset,
  {57a10dd7-43fc-4f19-8c87-239900036897}, !- Handle
  Air Velocity Schedule,                  !- Name
  {e6bb15a1-cb78-4b93-9124-b27ed7c01345}, !- Schedule Type Limits Name
  {2e97e8e1-577d-4098-8f80-98eb3f5d2c5a}; !- Default Day Schedule Name

OS:Schedule:Day,
  {2e97e8e1-577d-4098-8f80-98eb3f5d2c5a}, !- Handle
  Air Velocity Schedule Default,          !- Name
  {e6bb15a1-cb78-4b93-9124-b27ed7c01345}, !- Schedule Type Limits Name
  ,                                       !- Interpolate to Timestep
  24,                                     !- Hour 1
  0,                                      !- Minute 1
  0.2;                                    !- Value Until Time 1

OS:ScheduleTypeLimits,
  {e6bb15a1-cb78-4b93-9124-b27ed7c01345}, !- Handle
  Velocity,                               !- Name
  0,                                      !- Lower Limit Value
  ,                                       !- Upper Limit Value
  Continuous,                             !- Numeric Type
  Velocity;                               !- Unit Type

OS:Schedule:Ruleset,
  {9ae7efa5-ee7f-4529-9253-71583f2dbc9a}, !- Handle
  Work Efficiency Schedule,               !- Name
  {7417db74-4ac8-4012-a341-cf979318ff12}, !- Schedule Type Limits Name
  {146731f3-fd7c-4cfe-92b2-f7e06f22a7ac}; !- Default Day Schedule Name

OS:Schedule:Day,
  {146731f3-fd7c-4cfe-92b2-f7e06f22a7ac}, !- Handle
  Work Efficiency Schedule Default,       !- Name
  {7417db74-4ac8-4012-a341-cf979318ff12}, !- Schedule Type Limits Name
  ,                                       !- Interpolate to Timestep
  24,                                     !- Hour 1
  0,                                      !- Minute 1
  0;                                      !- Value Until Time 1

OS:Lights:Definition,
  {10206641-c14f-4886-bf3b-ad25c444d4d9}, !- Handle
  MidriseApartment Apartment Lights Definition, !- Name
  Watts/Area,                             !- Design Level Calculation Method
  ,                                       !- Lighting Level {W}
  11.5173841458794,                       !- Watts per Space Floor Area {W/m2}
  ,                                       !- Watts per Person {W/person}
  0.6,                                    !- Fraction Radiant
  0.2;                                    !- Fraction Visible

OS:AdditionalProperties,
  {1105454a-8c16-46ca-8969-859f7f35fce7}, !- Handle
  {10206641-c14f-4886-bf3b-ad25c444d4d9}, !- Object Name
  lpd_fraction_linear_fluorescent,        !- Feature Name 1
  Double,                                 !- Feature Data Type 1
  1;                                      !- Feature Value 1

OS:Lights:Definition,
  {0a336671-d5dd-4cf7-9c7c-39ec8a188940}, !- Handle
  MidriseApartment Apartment Additional Lights Definition, !- Name
  Watts/Area,                             !- Design Level Calculation Method
  ,                                       !- Lighting Level {W}
  2.90625581251162,                       !- Watts per Space Floor Area {W/m2}
  ,                                       !- Watts per Person {W/person}
  0.6,                                    !- Fraction Radiant
  0.2,                                    !- Fraction Visible
  0;                                      !- Return Air Fraction

OS:ElectricEquipment:Definition,
  {98fa8ecc-30e0-49f2-88f2-fbe8fef72b1c}, !- Handle
  MidriseApartment Apartment Elec Equip Definition, !- Name
  Watts/Area,                             !- Design Level Calculation Method
  ,                                       !- Design Level {W}
  6.67,                                   !- Watts per Space Floor Area {W/m2}
  ,                                       !- Watts per Person {W/person}
  ,                                       !- Fraction Latent
  0.5;                                    !- Fraction Radiant

OS:DesignSpecification:OutdoorAir,
  {ab8e45d2-dced-47b5-b384-0298f8e17cd1}, !- Handle
  MidriseApartment Apartment Ventilation, !- Name
  Sum,                                    !- Outdoor Air Method
  ,                                       !- Outdoor Air Flow per Person {m3/s-person}
  ,                                       !- Outdoor Air Flow per Floor Area {m3/s-m2}
  ,                                       !- Outdoor Air Flow Rate {m3/s}
  0.35,                                   !- Outdoor Air Flow Air Changes per Hour {1/hr}
  ;                                       !- Outdoor Air Flow Rate Fraction Schedule Name

OS:DefaultScheduleSet,
  {f2ccd561-51b2-4663-901f-95a84029a2db}, !- Handle
  MidriseApartment Apartment Schedule Set, !- Name
  ,                                       !- Hours of Operation Schedule Name
  {1a1398b5-50b6-4a2d-a30d-b29a3fe9d15e}, !- Number of People Schedule Name