
OS:Version,
  {bccc5ac6-a314-4186-a306-410c4aa1eb8e}, !- Handle
  2.8.1;                                  !- Version Identifier

OS:Facility,
  {65aae7b2-cc8c-438d-8c6b-1d41a9ff6e55}; !- Handle

OS:Site,
  {e73ea304-3274-4205-9ec8-c1904633daf6}, !- Handle
  Buffalo Niagara Intl Ap_NY_USA,         !- Name
  42.8134271966741,                       !- Latitude {deg}
  -78.8491695046689,                      !- Longitude {deg}
  -5,                                     !- Time Zone {hr}
  215,                                    !- Elevation {m}
  City;                                   !- Terrain

OS:SimulationControl,
  {cd52dd7e-626d-4097-860d-02ab9ccdcb60}, !- Handle
  ,                                       !- Do Zone Sizing Calculation
  ,                                       !- Do System Sizing Calculation
  ,                                       !- Do Plant Sizing Calculation
  No,                                     !- Run Simulation for Sizing Periods
  Yes;                                    !- Run Simulation for Weather File Run Periods

OS:Sizing:Parameters,
  {d03f32ad-994e-47e1-996b-0594a1398c41}, !- Handle
  1.25,                                   !- Heating Sizing Factor
  1.15;                                   !- Cooling Sizing Factor

OS:Timestep,
  {3bb743b2-f212-4fcd-87d1-0bf9035add9a}, !- Handle
  2;                                      !- Number of Timesteps per Hour

OS:ShadowCalculation,
  {cfb39993-46b5-4562-8af1-fd660c28f299}, !- Handle
  20,                                     !- Calculation Frequency
  15000;                                  !- Maximum Figures in Shadow Overlap Calculations

OS:HeatBalanceAlgorithm,
  {7aa09d79-eb7e-42a8-a9a3-64c2be21ce60}, !- Handle
  ConductionTransferFunction,             !- Algorithm
  200;                                    !- Surface Temperature Upper Limit {C}

OS:RunPeriod,
  {cdd0667b-f396-4842-a14d-f3ea52a0cd64}, !- Handle
  Run Period 1,                           !- Name
  6,                                      !- Begin Month
  1,                                      !- Begin Day of Month
  8,                                      !- End Month
  1,                                      !- End Day of Month
  ,                                       !- Use Weather File Holidays and Special Days
  ,                                       !- Use Weather File Daylight Saving Period
  ,                                       !- Apply Weekend Holiday Rule
  ,                                       !- Use Weather File Rain Indicators
  ,                                       !- Use Weather File Snow Indicators
  ;                                       !- Number of Times Runperiod to be Repeated

OS:LifeCycleCost:Parameters,
  {6c1911e6-d620-47ff-8a13-8d5a6484c76a}, !- Handle
  ,                                       !- Analysis Type
  ,                                       !- Discounting Convention
  ,                                       !- Inflation Approach
  ,                                       !- Real Discount Rate
  ,                                       !- Nominal Discount Rate
  ,                                       !- Inflation
  ,                                       !- Base Date Month
  ,                                       !- Base Date Year
  ,                                       !- Service Date Month
  ,                                       !- Service Date Year
  ;                                       !- Length of Study Period in Years

OS:YearDescription,
  {6634d5c0-e638-48a4-b04d-6bdd0ce57a96}, !- Handle
  2019,                                   !- Calendar Year
  ,                                       !- Day of Week for Start Day
  ;                                       !- Is Leap Year

OS:WeatherFile,
  {b1c38a52-7104-4c56-a878-ef9ab83bca34}, !- Handle
  Buffalo Niagara Intl Ap,                !- City
  NY,                                     !- State Province Region
  USA,                                    !- Country
  TMY3,                                   !- Data Source
  725280,                                 !- WMO Number
  42.93,                                  !- Latitude {deg}
  -78.73,                                 !- Longitude {deg}
  -5,                                     !- Time Zone {hr}
  215,                                    !- Elevation {m}
  file:///C:/gitrepos/urbanopt-example-geojson-project/weather/USA_NY_Buffalo-Greater.Buffalo.Intl.AP.725280_TMY3.epw, !- Url
  ;                                       !- Checksum

OS:Site:WaterMainsTemperature,
  {6a800f40-2726-4114-9564-928ea9e23af7}, !- Handle
  Correlation,                            !- Calculation Method
  ,                                       !- Temperature Schedule Name
  8.96666666666667,                       !- Annual Average Outdoor Air Temperature {C}
  26.2;                                   !- Maximum Difference In Monthly Average Outdoor Air Temperatures {deltaC}

OS:SizingPeriod:DesignDay,
  {3d217b5f-3576-4937-afdf-b32f07167878}, !- Handle
  Buffalo Niagara Intl Ap Ann Htg 99.6% Condns DB, !- Name
  -16.3,                                  !- Maximum Dry-Bulb Temperature {C}
  0,                                      !- Daily Dry-Bulb Temperature Range {deltaC}
  -16.3,                                  !- Humidity Indicating Conditions at Maximum Dry-Bulb
  98769,                                  !- Barometric Pressure {Pa}
  5.1,                                    !- Wind Speed {m/s}
  270,                                    !- Wind Direction {deg}
  0,                                      !- Sky Clearness
  0,                                      !- Rain Indicator
  0,                                      !- Snow Indicator
  21,                                     !- Day of Month
  1,                                      !- Month
  WinterDesignDay,                        !- Day Type
  0,                                      !- Daylight Saving Time Indicator
  Wetbulb,                                !- Humidity Indicating Type
  ,                                       !- Humidity Indicating Day Schedule Name
  DefaultMultipliers,                     !- Dry-Bulb Temperature Range Modifier Type
  ,                                       !- Dry-Bulb Temperature Range Modifier Schedule Name
  ASHRAEClearSky;                         !- Solar Model Indicator

OS:SizingPeriod:DesignDay,
  {be6c7bed-eac4-450d-9c8e-9526edc2f007}, !- Handle
  Buffalo Niagara Intl Ap Ann Clg .4% Condns DB=>MWB, !- Name
  30.3,                                   !- Maximum Dry-Bulb Temperature {C}
  9.3,                                    !- Daily Dry-Bulb Temperature Range {deltaC}
  21.8,                                   !- Humidity Indicating Conditions at Maximum Dry-Bulb
  98769,                                  !- Barometric Pressure {Pa}
  5.7,                                    !- Wind Speed {m/s}
  240,                                    !- Wind Direction {deg}
  0,                                      !- Sky Clearness
  0,                                      !- Rain Indicator
  0,                                      !- Snow Indicator
  21,                                     !- Day of Month
  7,                                      !- Month
  SummerDesignDay,                        !- Day Type
  0,                                      !- Daylight Saving Time Indicator
  Wetbulb,                                !- Humidity Indicating Type
  ,                                       !- Humidity Indicating Day Schedule Name
  DefaultMultipliers,                     !- Dry-Bulb Temperature Range Modifier Type
  ,                                       !- Dry-Bulb Temperature Range Modifier Schedule Name
  ASHRAETau,                              !- Solar Model Indicator
  ,                                       !- Beam Solar Day Schedule Name
  ,                                       !- Diffuse Solar Day Schedule Name
  0.462,                                  !- ASHRAE Taub {dimensionless}
  2.001;                                  !- ASHRAE Taud {dimensionless}

OS:SizingPeriod:DesignDay,
  {2282180e-da4d-43b9-b183-93f4d8f89f72}, !- Handle
  Buffalo Niagara Intl Ap Ann Clg .4% Condns WB=>MDB, !- Name
  27.8,                                   !- Maximum Dry-Bulb Temperature {C}
  9.3,                                    !- Daily Dry-Bulb Temperature Range {deltaC}
  23.8,                                   !- Humidity Indicating Conditions at Maximum Dry-Bulb
  98769,                                  !- Barometric Pressure {Pa}
  5.7,                                    !- Wind Speed {m/s}
  240,                                    !- Wind Direction {deg}
  0,                                      !- Sky Clearness
  0,                                      !- Rain Indicator
  0,                                      !- Snow Indicator
  21,                                     !- Day of Month
  7,                                      !- Month
  SummerDesignDay,                        !- Day Type
  0,                                      !- Daylight Saving Time Indicator
  Wetbulb,                                !- Humidity Indicating Type
  ,                                       !- Humidity Indicating Day Schedule Name
  DefaultMultipliers,                     !- Dry-Bulb Temperature Range Modifier Type
  ,                                       !- Dry-Bulb Temperature Range Modifier Schedule Name
  ASHRAETau,                              !- Solar Model Indicator
  ,                                       !- Beam Solar Day Schedule Name
  ,                                       !- Diffuse Solar Day Schedule Name
  0.462,                                  !- ASHRAE Taub {dimensionless}
  2.001;                                  !- ASHRAE Taud {dimensionless}

OS:ClimateZones,
  {026b22a6-aab6-45b5-af47-c4a9b8c64c87}, !- Handle
  ,                                       !- Active Institution
  ,                                       !- Active Year
  ASHRAE,                                 !- Climate Zone Institution Name 1
  ANSI/ASHRAE Standard 169,               !- Climate Zone Document Name 1
  2006,                                   !- Climate Zone Document Year 1
  6A;                                     !- Climate Zone Value 1

OS:RunPeriodControl:DaylightSavingTime,
  {4ae2391c-b22a-47f8-975b-762e1aae413d}, !- Handle
  2nd Sunday in March,                    !- Start Date
  1st Sunday in November;                 !- End Date

OS:People:Definition,
  {e0829371-a8c7-4e52-a0f5-8d9254a6fa9d}, !- Handle
  MidriseApartment Apartment People Definition, !- Name
  People/Area,                            !- Number of People Calculation Method
  ,                                       !- Number of People {people}
  0.0283090843959466,                     !- People per Space Floor Area {person/m2}
  ,                                       !- Space Floor Area per Person {m2/person}
  0.3;                                    !- Fraction Radiant

OS:Schedule:Ruleset,
  {79fc1a01-2460-4622-a152-c842d65dc738}, !- Handle
  Clothing Schedule,                      !- Name
  {c4b498bf-c2ab-4f0f-a141-b35c498237b2}, !- Schedule Type Limits Name
  {483e8c05-9c67-41c4-8fed-44a4270b6475}; !- Default Day Schedule Name

OS:Schedule:Day,
  {483e8c05-9c67-41c4-8fed-44a4270b6475}, !- Handle
  Clothing Schedule Default Winter Clothes, !- Name
  {c4b498bf-c2ab-4f0f-a141-b35c498237b2}, !- Schedule Type Limits Name
  ,                                       !- Interpolate to Timestep
  24,                                     !- Hour 1
  0,                                      !- Minute 1
  1;                                      !- Value Until Time 1

OS:Schedule:Rule,
  {59218b40-57d2-4343-a2a6-54738acefc12}, !- Handle
  Schedule Rule 1,                        !- Name
  {79fc1a01-2460-4622-a152-c842d65dc738}, !- Schedule Ruleset Name
  0,                                      !- Rule Order
  {6bd5abad-2fe9-4008-a724-b74754ab49f0}, !- Day Schedule Name
  ,                                       !- Apply Sunday
  ,                                       !- Apply Monday
  ,                                       !- Apply Tuesday
  ,                                       !- Apply Wednesday
  ,                                       !- Apply Thursday
  ,                                       !- Apply Friday
  ,                                       !- Apply Saturday
  ,                                       !- Apply Holiday
  DateRange,                              !- Date Specification Type
  5,                                      !- Start Month
  1,                                      !- Start Day
  9,                                      !- End Month
  30;                                     !- End Day

OS:Schedule:Day,
  {6bd5abad-2fe9-4008-a724-b74754ab49f0}, !- Handle
  Clothing Schedule Summer Clothes,       !- Name
  {c4b498bf-c2ab-4f0f-a141-b35c498237b2}, !- Schedule Type Limits Name
  ,                                       !- Interpolate to Timestep
  24,                                     !- Hour 1
  0,                                      !- Minute 1
  0.5;                                    !- Value Until Time 1

OS:ScheduleTypeLimits,
  {c4b498bf-c2ab-4f0f-a141-b35c498237b2}, !- Handle
  ClothingInsulation,                     !- Name
  0,                                      !- Lower Limit Value
  ,                                       !- Upper Limit Value
  Continuous,                             !- Numeric Type
  ClothingInsulation;                     !- Unit Type

OS:Schedule:Ruleset,
  {332abb8b-4c2d-4e81-89e4-46676c71d002}, !- Handle
  Air Velocity Schedule,                  !- Name
  {b80feec5-0bcc-447f-b11b-e59c36930e58}, !- Schedule Type Limits Name
  {04dfce7e-c70b-4dd9-87f2-6bdf57570d88}; !- Default Day Schedule Name

OS:Schedule:Day,
  {04dfce7e-c70b-4dd9-87f2-6bdf57570d88}, !- Handle
  Air Velocity Schedule Default,          !- Name
  {b80feec5-0bcc-447f-b11b-e59c36930e58}, !- Schedule Type Limits Name
  ,                                       !- Interpolate to Timestep
  24,                                     !- Hour 1
  0,                                      !- Minute 1
  0.2;                                    !- Value Until Time 1

OS:ScheduleTypeLimits,
  {b80feec5-0bcc-447f-b11b-e59c36930e58}, !- Handle
  Velocity,                               !- Name
  0,                                      !- Lower Limit Value
  ,                                       !- Upper Limit Value
  Continuous,                             !- Numeric Type
  Velocity;                               !- Unit Type

OS:Schedule:Ruleset,
  {a19aaa9e-ea9c-4545-9a6f-22f734ec9542}, !- Handle
  Work Efficiency Schedule,               !- Name
  {00d246ea-bb71-4bf4-91ad-9db818aa4b3d}, !- Schedule Type Limits Name
  {b7c0a9e7-e2eb-4d7a-a3a5-4621d32f538e}; !- Default Day Schedule Name

OS:Schedule:Day,
  {b7c0a9e7-e2eb-4d7a-a3a5-4621d32f538e}, !- Handle
  Work Efficiency Schedule Default,       !- Name
  {00d246ea-bb71-4bf4-91ad-9db818aa4b3d}, !- Schedule Type Limits Name
  ,                                       !- Interpolate to Timestep
  24,                                     !- Hour 1
  0,                                      !- Minute 1
  0;                                      !- Value Until Time 1

OS:ScheduleTypeLimits,
  {00d246ea-bb71-4bf4-91ad-9db818aa4b3d}, !- Handle
  Fractional,                             !- Name
  0,                                      !- Lower Limit Value
  1,                                      !- Upper Limit Value
  Continuous;                             !- Numeric Type

OS:Lights:Definition,
  {609755f2-21cd-4b49-b866-d5092fe26a04}, !- Handle
  MidriseApartment Apartment Lights Definition, !- Name
  Watts/Area,                             !- Design Level Calculation Method
  ,                                       !- Lighting Level {W}
  11.5173841458794,                       !- Watts per Space Floor Area {W/m2}
  ,                                       !- Watts per Person {W/person}
  0.6,                                    !- Fraction Radiant
  0.2;                                    !- Fraction Visible

OS:AdditionalProperties,
  {f7f3a22d-ec70-4d5c-96b9-a414b024f161}, !- Handle
  {609755f2-21cd-4b49-b866-d5092fe26a04}, !- Object Name
  lpd_fraction_linear_fluorescent,        !- Feature Name 1
  Double,                                 !- Feature Data Type 1
  1;                                      !- Feature Value 1

OS:Lights:Definition,
  {0fb13dd0-3ca4-4f2d-8bbd-f7b5fdbed672}, !- Handle
  MidriseApartment Apartment Additional Lights Definition, !- Name
  Watts/Area,                             !- Design Level Calculation Method
  ,                                       !- Lighting Level {W}
  2.90625581251162,                       !- Watts per Space Floor Area {W/m2}
  ,                                       !- Watts per Person {W/person}
  0.6,                                    !- Fraction Radiant
  0.2,                                    !- Fraction Visible
  0;                                      !- Return Air Fraction

OS:ElectricEquipment:Definition,
  {162ffe71-d07b-4ae2-af6d-81e0485627f4}, !- Handle
  MidriseApartment Apartment Elec Equip Definition, !- Name
  Watts/Area,                             !- Design Level Calculation Method
  ,                                       !- Design Level {W}
  6.67,                                   !- Watts per Space Floor Area {W/m2}
  ,                                       !- Watts per Person {W/person}
  ,                                       !- Fraction Latent
  0.5;                                    !- Fraction Radiant

OS:DesignSpecification:OutdoorAir,
  {8fa8d14d-5eb3-4293-abf0-42229c5595e2}, !- Handle
  MidriseApartment Apartment Ventilation, !- Name
  Sum,                                    !- Outdoor Air Method
  ,                                       !- Outdoor Air Flow per Person {m3/s-person}
  ,                                       !- Outdoor Air Flow per Floor Area {m3/s-m2}
  ,                                       !- Outdoor Air Flow Rate {m3/s}
  0.35,                                   !- Outdoor Air Flow Air Changes per Hour {1/hr}
  ;                                       !- Outdoor Air Flow Rate Fraction Schedule Name

OS:DefaultScheduleSet,
  {21f10a1b-33e9-4023-8a47-82397e925864}, !- Handle
  MidriseApartment Apartment Schedule Set, !- Name
  ,                                       !- Hours of Operation Schedule Name
  {6a25a64e-89ce-4f78-a33a-8b3bdb8eacb3}, !- Number of People Schedule Name
  {a0caa88e-5772-4322-a86d-cb4ede1870b2}, !- People Activity Level Schedule Name
  {b290b1ad-89b4-437e-bce1-04f18c003477}, !- Lighting Schedule Name
  {9cf67c0d-86e4-463c-af4a-7bfe250eab4e}, !- Electric Equipment Schedule Name
  ,                                       !- Gas Equipment Schedule Name
  ,                                       !- Hot Water Equipment Schedule Name
  {1b8dd2e1-92d7-45c2-b577-e2a77736750a}, !- Infiltration Schedule Name
  ,                                       !- Steam Equipment Schedule Name
  ;                                       !- Other Equipment Schedule Name

OS:Schedule:Ruleset,
  {6a25a64e-89ce-4f78-a33a-8b3bdb8eacb3}, !- Handle
  ApartmentMidRise OCC_APT_SCH,           !- Name
  {00d246ea-bb71-4bf4-91ad-9db818aa4b3d}, !- Schedule Type Limits Name
  {0bc339b5-b947-471f-ab8d-cc6d479a0473}, !- Default Day Schedule Name
  {ae7790d4-3b3a-49ed-b0df-4b9e37c1dc68}, !- Summer Design Day Schedule Name
  {8abe63b1-7585-4481-adc0-bb4467ac75ed}; !- Winter Design Day Schedule Name

OS:Schedule:Day,
  {0bc339b5-b947-471f-ab8d-cc6d479a0473}, !- Handle
  ApartmentMidRise OCC_APT_SCH Default,   !- Name
  {00d246ea-bb71-4bf4-91ad-9db818aa4b3d}, !- Schedule Type Limits Name
  ,                                       !- Interpolate to Timestep
  7,                                      !- Hour 1
  0,                                      !- Minute 1
  1,                                      !- Value Until Time 1
  8,                                      !- Hour 2
  0,                                      !- Minute 2
  0.85,                                   !- Value Until Time 2
  9,                                      !- Hour 3
  0,                                      !- Minute 3
  0.39,                                   !- Value Until Time 3
  16,                                     !- Hour 4
  0,                                      !- Minute 4
  0.25,                                   !- Value Until Time 4
  17,                                     !- Hour 5
  0,                                      !- Minute 5
  0.3,                                    !- Value Until Time 5
  18,                                     !- Hour 6
  0,                                      !- Minute 6
  0.52,                                   !- Value Until Time 6
  21,                                     !- Hour 7
  0,                                      !- Minute 7
  0.87,                                   !- Value Until Time 7
  24,                                     !- Hour 8
  0,                                      !- Minute 8
  1;                                      !- Value Until Time 8

OS:Schedule:Day,
  {8abe63b1-7585-4481-adc0-bb4467ac75ed}, !- Handle
  ApartmentMidRise OCC_APT_SCH Winter Design Day, !- Name
  {00d246ea-bb71-4bf4-91ad-9db818aa4b3d}, !- Schedule Type Limits Name
  ,                                       !- Interpolate to Timestep
  7,                                      !- Hour 1
  0,                                      !- Minute 1
  1,                                      !- Value Until Time 1
  8,                                      !- Hour 2
  0,                                      !- Minute 2
  0.85,                                   !- Value Until Time 2
  9,                                      !- Hour 3
  0,                                      !- Minute 3
  0.39,                                   !- Value Until Time 3
  16,                                     !- Hour 4
  0,                                      !- Minute 4
  0.25,                                   !- Value Until Time 4
  17,                                     !- Hour 5
  0,                                      !- Minute 5
  0.3,                                    !- Value Until Time 5
  18,                                     !- Hour 6
  0,                                      !- Minute 6
  0.52,                                   !- Value Until Time 6
  21,                                     !- Hour 7
  0,                                      !- Minute 7
  0.87,                                   !- Value Until Time 7
  24,                                     !- Hour 8
  0,                                      !- Minute 8
  1;                                      !- Value Until Time 8

OS:Schedule:Day,
  {ae7790d4-3b3a-49ed-b0df-4b9e37c1dc68}, !- Handle
  ApartmentMidRise OCC_APT_SCH Summer Design Day, !- Name
  {00d246ea-bb71-4bf4-91ad-9db818aa4b3d}, !- Schedule Type Limits Name
  ,                                       !- Interpolate to Timestep
  7,                                      !- Hour 1
  0,                                      !- Minute 1
  1,                                      !- Value Until Time 1
  8,                                      !- Hour 2
  0,                                      !- Minute 2
  0.85,                                   !- Value Until Time 2
  9,                                      !- Hour 3
  0,                                      !- Minute 3
  0.39,                                   !- Value Until Time 3
  16,                                     !- Hour 4
  0,                                      !- Minute 4
  0.25,                                   !- Value Until Time 4
  17,                                     !- Hour 5
  0,                                      !- Minute 5
  0.3,                                    !- Value Until Time 5
  18,                                     !- Hour 6
  0,                                      !- Minute 6
  0.52,                                   !- Value Until Time 6
  21,                                     !- Hour 7
  0,                                      !- Minute 7
  0.87,                                   !- Value Until Time 7
  24,                                     !- Hour 8
  0,                                      !- Minute 8
  1;                                      !- Value Until Time 8

OS:Schedule:Ruleset,
  {a0caa88e-5772-4322-a86d-cb4ede1870b2}, !- Handle
  ApartmentMidRise Activity Schedule,     !- Name
  {16dd6a60-f330-4afa-a870-86c27e9ffc81}, !- Schedule Type Limits Name
  {5961fb62-ac67-4737-96ff-3c2837b866d1}, !- Default Day Schedule Name
  {304e500a-530a-4c1d-bd18-33497ad1675d}, !- Summer Design Day Schedule Name
  {f1e908a1-e0f8-4a77-a0b4-3e2dffc1cc8c}; !- Winter Design Day Schedule Name

OS:Schedule:Day,
  {5961fb62-ac67-4737-96ff-3c2837b866d1}, !- Handle
  ApartmentMidRise Activity Schedule Default, !- Name
  {16dd6a60-f330-4afa-a870-86c27e9ffc81}, !- Schedule Type Limits Name
  ,                                       !- Interpolate to Timestep
  24,                                     !- Hour 1
  0,                                      !- Minute 1
  95;                                     !- Value Until Time 1

OS:Schedule:Day,
  {f1e908a1-e0f8-4a77-a0b4-3e2dffc1cc8c}, !- Handle
  ApartmentMidRise Activity Schedule Winter Design Day, !- Name
  {16dd6a60-f330-4afa-a870-86c27e9ffc81}, !- Schedule Type Limits Name
  ,                                       !- Interpolate to Timestep
  24,                                     !- Hour 1
  0,                                      !- Minute 1
  95;                                     !- Value Until Time 1

OS:Schedule:Day,
  {304e500a-530a-4c1d-bd18-33497ad1675d}, !- Handle
  ApartmentMidRise Activity Schedule Summer Design Day, !- Name
  {16dd6a60-f330-4afa-a870-86c27e9ffc81}, !- Schedule Type Limits Name
  ,                                       !- Interpolate to Timestep
  24,                                     !- Hour 1
  0,                                      !- Minute 1
  95;                                     !- Value Until Time 1

OS:ScheduleTypeLimits,
  {16dd6a60-f330-4afa-a870-86c27e9ffc81}, !- Handle
  ActivityLevel,                          !- Name
  0,                                      !- Lower Limit Value
  ,                                       !- Upper Limit Value
  Continuous,                             !- Numeric Type
  ActivityLevel;                          !- Unit Type

OS:Schedule:Ruleset,
  {b290b1ad-89b4-437e-bce1-04f18c003477}, !- Handle
  ApartmentMidRise LTG_APT_SCH,           !- Name
  {00d246ea-bb71-4bf4-91ad-9db818aa4b3d}, !- Schedule Type Limits Name
  {5e387c15-c3ab-4ee2-9872-f3b6a52b0d82}, !- Default Day Schedule Name
  {3742bf37-8937-4206-a439-91b67bb01a5f}, !- Summer Design Day Schedule Name
  {368d443f-0294-49a7-afa5-3273d6fb1755}; !- Winter Design Day Schedule Name

OS:Schedule:Day,
  {5e387c15-c3ab-4ee2-9872-f3b6a52b0d82}, !- Handle
  ApartmentMidRise LTG_APT_SCH Default,   !- Name
  {00d246ea-bb71-4bf4-91ad-9db818aa4b3d}, !- Schedule Type Limits Name
  ,                                       !- Interpolate to Timestep
  4,                                      !- Hour 1
  0,                                      !- Minute 1
  0.011316031,                            !- Value Until Time 1
  5,                                      !- Hour 2
  0,                                      !- Minute 2
  0.033948092,                            !- Value Until Time 2
  6,                                      !- Hour 3
  0,                                      !- Minute 3
  0.0735542,                              !- Value Until Time 3
  7,                                      !- Hour 4
  0,                                      !- Minute 4
  0.079212215,                            !- Value Until Time 4
  8,                                      !- Hour 5
  0,                                      !- Minute 5
  0.0735542,                              !- Value Until Time 5
  9,                                      !- Hour 6
  0,                                      !- Minute 6
  0.033948092,                            !- Value Until Time 6
  15,                                     !- Hour 7
  0,                                      !- Minute 7
  0.022632061,                            !- Value Until Time 7
  16,                                     !- Hour 8
  0,                                      !- Minute 8
  0.039606108,                            !- Value Until Time 8
  17,                                     !- Hour 9
  0,                                      !- Minute 9
  0.079212215,                            !- Value Until Time 9
  18,                                     !- Hour 10
  0,                                      !- Minute 10
  0.113160307,                            !- Value Until Time 10
  19,                                     !- Hour 11
  0,                                      !- Minute 11
  0.152766415,                            !- Value Until Time 11
  21,                                     !- Hour 12
  0,                                      !- Minute 12
  0.181056492,                            !- Value Until Time 12
  22,                                     !- Hour 13
  0,                                      !- Minute 13
  0.124476338,                            !- Value Until Time 13
  23,                                     !- Hour 14
  0,                                      !- Minute 14
  0.067896184,                            !- Value Until Time 14
  24,                                     !- Hour 15
  0,                                      !- Minute 15
  0.028290077;                            !- Value Until Time 15

OS:Schedule:Day,
  {368d443f-0294-49a7-afa5-3273d6fb1755}, !- Handle
  ApartmentMidRise LTG_APT_SCH Winter Design Day, !- Name