
OS:Version,
  {cbad50b7-f9e0-424e-a223-0f6ba6187c0b}, !- Handle
  2.8.1;                                  !- Version Identifier

OS:Facility,
  {5beec546-7eb3-4638-a0c5-bc8a2f175e6c}; !- Handle

OS:Site,
  {ac975198-a42a-41b4-83d2-cdc182842eb6}, !- Handle
  Buffalo Niagara Intl Ap_NY_USA,         !- Name
  42.8135751575089,                       !- Latitude {deg}
  -78.8485788387214,                      !- Longitude {deg}
  -5,                                     !- Time Zone {hr}
  215,                                    !- Elevation {m}
  City;                                   !- Terrain

OS:SimulationControl,
  {4417e3d8-6481-4a98-ae64-c6d4513c29a1}, !- Handle
  ,                                       !- Do Zone Sizing Calculation
  ,                                       !- Do System Sizing Calculation
  ,                                       !- Do Plant Sizing Calculation
  No,                                     !- Run Simulation for Sizing Periods
  Yes;                                    !- Run Simulation for Weather File Run Periods

OS:Sizing:Parameters,
  {6f03d738-3fa8-4dd5-9f67-ea98943999ac}, !- Handle
  1.25,                                   !- Heating Sizing Factor
  1.15;                                   !- Cooling Sizing Factor

OS:Timestep,
  {20196fbc-57d0-4a9c-858c-d0957af62990}, !- Handle
  2;                                      !- Number of Timesteps per Hour

OS:ShadowCalculation,
  {844ca930-88ab-412a-8ece-d41d9166bf99}, !- Handle
  20,                                     !- Calculation Frequency
  15000;                                  !- Maximum Figures in Shadow Overlap Calculations

OS:HeatBalanceAlgorithm,
  {5cb0c3e0-24ce-488b-8228-df18c6dd8fe2}, !- Handle
  ConductionTransferFunction,             !- Algorithm
  200;                                    !- Surface Temperature Upper Limit {C}

OS:RunPeriod,
  {f0c057a5-f20f-4bc4-a696-d9b1635b442e}, !- Handle
  Run Period 1,                           !- Name
  6,                                      !- Begin Month
  1,                                      !- Begin Day of Month
  8,                                      !- End Month
  1,                                      !- End Day of Month
  ,                                       !- Use Weather File Holidays and Special Days
  ,                                       !- Use Weather File Daylight Saving Period
  ,                                       !- Apply Weekend Holiday Rule
  ,                                       !- Use Weather File Rain Indicators
  ,                                       !- Use Weather File Snow Indicators
  ;                                       !- Number of Times Runperiod to be Repeated

OS:LifeCycleCost:Parameters,
  {5662a291-538d-411a-93d6-42075d3d5119}, !- Handle
  ,                                       !- Analysis Type
  ,                                       !- Discounting Convention
  ,                                       !- Inflation Approach
  ,                                       !- Real Discount Rate
  ,                                       !- Nominal Discount Rate
  ,                                       !- Inflation
  ,                                       !- Base Date Month
  ,                                       !- Base Date Year
  ,                                       !- Service Date Month
  ,                                       !- Service Date Year
  ;                                       !- Length of Study Period in Years

OS:YearDescription,
  {88c68d4d-0403-476b-bc09-1d9739df815f}, !- Handle
  2019,                                   !- Calendar Year
  ,                                       !- Day of Week for Start Day
  ;                                       !- Is Leap Year

OS:WeatherFile,
  {31481b24-06c7-4e85-abde-465beb4c867c}, !- Handle
  Buffalo Niagara Intl Ap,                !- City
  NY,                                     !- State Province Region
  USA,                                    !- Country
  TMY3,                                   !- Data Source
  725280,                                 !- WMO Number
  42.93,                                  !- Latitude {deg}
  -78.73,                                 !- Longitude {deg}
  -5,                                     !- Time Zone {hr}
  215,                                    !- Elevation {m}
  file:///C:/gitrepos/urbanopt-example-geojson-project/weather/USA_NY_Buffalo-Greater.Buffalo.Intl.AP.725280_TMY3.epw, !- Url
  ;                                       !- Checksum

OS:Site:WaterMainsTemperature,
  {7e24a838-3896-4568-ad21-05d8d74b97d6}, !- Handle
  Correlation,                            !- Calculation Method
  ,                                       !- Temperature Schedule Name
  8.96666666666667,                       !- Annual Average Outdoor Air Temperature {C}
  26.2;                                   !- Maximum Difference In Monthly Average Outdoor Air Temperatures {deltaC}

OS:SizingPeriod:DesignDay,
  {5fd06396-9160-4eef-9086-d62c55096158}, !- Handle
  Buffalo Niagara Intl Ap Ann Htg 99.6% Condns DB, !- Name
  -16.3,                                  !- Maximum Dry-Bulb Temperature {C}
  0,                                      !- Daily Dry-Bulb Temperature Range {deltaC}
  -16.3,                                  !- Humidity Indicating Conditions at Maximum Dry-Bulb
  98769,                                  !- Barometric Pressure {Pa}
  5.1,                                    !- Wind Speed {m/s}
  270,                                    !- Wind Direction {deg}
  0,                                      !- Sky Clearness
  0,                                      !- Rain Indicator
  0,                                      !- Snow Indicator
  21,                                     !- Day of Month
  1,                                      !- Month
  WinterDesignDay,                        !- Day Type
  0,                                      !- Daylight Saving Time Indicator
  Wetbulb,                                !- Humidity Indicating Type
  ,                                       !- Humidity Indicating Day Schedule Name
  DefaultMultipliers,                     !- Dry-Bulb Temperature Range Modifier Type
  ,                                       !- Dry-Bulb Temperature Range Modifier Schedule Name
  ASHRAEClearSky;                         !- Solar Model Indicator

OS:SizingPeriod:DesignDay,
  {a8586447-ce51-4ddb-acfc-2ce6badeb336}, !- Handle
  Buffalo Niagara Intl Ap Ann Clg .4% Condns DB=>MWB, !- Name
  30.3,                                   !- Maximum Dry-Bulb Temperature {C}
  9.3,                                    !- Daily Dry-Bulb Temperature Range {deltaC}
  21.8,                                   !- Humidity Indicating Conditions at Maximum Dry-Bulb
  98769,                                  !- Barometric Pressure {Pa}
  5.7,                                    !- Wind Speed {m/s}
  240,                                    !- Wind Direction {deg}
  0,                                      !- Sky Clearness
  0,                                      !- Rain Indicator
  0,                                      !- Snow Indicator
  21,                                     !- Day of Month
  7,                                      !- Month
  SummerDesignDay,                        !- Day Type
  0,                                      !- Daylight Saving Time Indicator
  Wetbulb,                                !- Humidity Indicating Type
  ,                                       !- Humidity Indicating Day Schedule Name
  DefaultMultipliers,                     !- Dry-Bulb Temperature Range Modifier Type
  ,                                       !- Dry-Bulb Temperature Range Modifier Schedule Name
  ASHRAETau,                              !- Solar Model Indicator
  ,                                       !- Beam Solar Day Schedule Name
  ,                                       !- Diffuse Solar Day Schedule Name
  0.462,                                  !- ASHRAE Taub {dimensionless}
  2.001;                                  !- ASHRAE Taud {dimensionless}

OS:SizingPeriod:DesignDay,
  {b0f6d873-e2d3-4263-b785-161a7eb84853}, !- Handle
  Buffalo Niagara Intl Ap Ann Clg .4% Condns WB=>MDB, !- Name
  27.8,                                   !- Maximum Dry-Bulb Temperature {C}
  9.3,                                    !- Daily Dry-Bulb Temperature Range {deltaC}
  23.8,                                   !- Humidity Indicating Conditions at Maximum Dry-Bulb
  98769,                                  !- Barometric Pressure {Pa}
  5.7,                                    !- Wind Speed {m/s}
  240,                                    !- Wind Direction {deg}
  0,                                      !- Sky Clearness
  0,                                      !- Rain Indicator
  0,                                      !- Snow Indicator
  21,                                     !- Day of Month
  7,                                      !- Month
  SummerDesignDay,                        !- Day Type
  0,                                      !- Daylight Saving Time Indicator
  Wetbulb,                                !- Humidity Indicating Type
  ,                                       !- Humidity Indicating Day Schedule Name
  DefaultMultipliers,                     !- Dry-Bulb Temperature Range Modifier Type
  ,                                       !- Dry-Bulb Temperature Range Modifier Schedule Name
  ASHRAETau,                              !- Solar Model Indicator
  ,                                       !- Beam Solar Day Schedule Name
  ,                                       !- Diffuse Solar Day Schedule Name
  0.462,                                  !- ASHRAE Taub {dimensionless}
  2.001;                                  !- ASHRAE Taud {dimensionless}

OS:ClimateZones,
  {e60c98a4-be9c-4c7b-a044-d47b4d4d98ba}, !- Handle
  ,                                       !- Active Institution
  ,                                       !- Active Year
  ASHRAE,                                 !- Climate Zone Institution Name 1
  ANSI/ASHRAE Standard 169,               !- Climate Zone Document Name 1
  2006,                                   !- Climate Zone Document Year 1
  6A;                                     !- Climate Zone Value 1

OS:RunPeriodControl:DaylightSavingTime,
  {766f7764-0051-4487-a6a6-73c6f60b8ed9}, !- Handle
  2nd Sunday in March,                    !- Start Date
  1st Sunday in November;                 !- End Date

OS:People:Definition,
  {c3f2ea35-2ba9-4c35-b920-0ed2e7a48fde}, !- Handle
  MidriseApartment Apartment People Definition, !- Name
  People/Area,                            !- Number of People Calculation Method
  ,                                       !- Number of People {people}
  0.0283090843959466,                     !- People per Space Floor Area {person/m2}
  ,                                       !- Space Floor Area per Person {m2/person}
  0.3;                                    !- Fraction Radiant

OS:Schedule:Ruleset,
  {30c31c38-f0f4-4a5a-abdd-fca09d250339}, !- Handle
  Clothing Schedule,                      !- Name
  {df88ced6-3197-4296-84e5-62ac7fb1cf9f}, !- Schedule Type Limits Name
  {5366c949-0dff-4699-a854-dc0d3a575e82}; !- Default Day Schedule Name

OS:Schedule:Day,
  {5366c949-0dff-4699-a854-dc0d3a575e82}, !- Handle
  Clothing Schedule Default Winter Clothes, !- Name
  {df88ced6-3197-4296-84e5-62ac7fb1cf9f}, !- Schedule Type Limits Name
  ,                                       !- Interpolate to Timestep
  24,                                     !- Hour 1
  0,                                      !- Minute 1
  1;                                      !- Value Until Time 1

OS:Schedule:Rule,
  {e466e645-2558-4145-bc9a-7439e00c4154}, !- Handle
  Schedule Rule 1,                        !- Name
  {30c31c38-f0f4-4a5a-abdd-fca09d250339}, !- Schedule Ruleset Name
  0,                                      !- Rule Order
  {f943e211-9237-415e-bfa6-880e7da13b4e}, !- Day Schedule Name
  ,                                       !- Apply Sunday
  ,                                       !- Apply Monday
  ,                                       !- Apply Tuesday
  ,                                       !- Apply Wednesday
  ,                                       !- Apply Thursday
  ,                                       !- Apply Friday
  ,                                       !- Apply Saturday
  ,                                       !- Apply Holiday
  DateRange,                              !- Date Specification Type
  5,                                      !- Start Month
  1,                                      !- Start Day
  9,                                      !- End Month
  30;                                     !- End Day

OS:Schedule:Day,
  {f943e211-9237-415e-bfa6-880e7da13b4e}, !- Handle
  Clothing Schedule Summer Clothes,       !- Name
  {df88ced6-3197-4296-84e5-62ac7fb1cf9f}, !- Schedule Type Limits Name
  ,                                       !- Interpolate to Timestep
  24,                                     !- Hour 1
  0,                                      !- Minute 1
  0.5;                                    !- Value Until Time 1

OS:ScheduleTypeLimits,
  {df88ced6-3197-4296-84e5-62ac7fb1cf9f}, !- Handle
  ClothingInsulation,                     !- Name
  0,                                      !- Lower Limit Value
  ,                                       !- Upper Limit Value
  Continuous,                             !- Numeric Type
  ClothingInsulation;                     !- Unit Type

OS:Schedule:Ruleset,
  {f954beab-f089-49c7-b3aa-e7ba065c0d56}, !- Handle
  Air Velocity Schedule,                  !- Name
  {57d2c0cc-c6d5-43f5-ae6c-173d8185b839}, !- Schedule Type Limits Name
  {404d398f-82db-4eac-a862-023ffdda66f1}; !- Default Day Schedule Name

OS:Schedule:Day,
  {404d398f-82db-4eac-a862-023ffdda66f1}, !- Handle
  Air Velocity Schedule Default,          !- Name
  {57d2c0cc-c6d5-43f5-ae6c-173d8185b839}, !- Schedule Type Limits Name
  ,                                       !- Interpolate to Timestep
  24,                                     !- Hour 1
  0,                                      !- Minute 1
  0.2;                                    !- Value Until Time 1

OS:ScheduleTypeLimits,
  {57d2c0cc-c6d5-43f5-ae6c-173d8185b839}, !- Handle
  Velocity,                               !- Name
  0,                                      !- Lower Limit Value
  ,                                       !- Upper Limit Value
  Continuous,                             !- Numeric Type
  Velocity;                               !- Unit Type

OS:Schedule:Ruleset,
  {aef65fd4-af01-490e-9109-746ca78881a2}, !- Handle
  Work Efficiency Schedule,               !- Name
  {401512ca-6376-40d6-9ce2-9f83f0a1e360}, !- Schedule Type Limits Name
  {7c7bc4e1-c9e9-4fc3-8e2a-7a7db26588cb}; !- Default Day Schedule Name

OS:Schedule:Day,
  {7c7bc4e1-c9e9-4fc3-8e2a-7a7db26588cb}, !- Handle
  Work Efficiency Schedule Default,       !- Name
  {401512ca-6376-40d6-9ce2-9f83f0a1e360}, !- Schedule Type Limits Name
  ,                                       !- Interpolate to Timestep
  24,                                     !- Hour 1
  0,                                      !- Minute 1
  0;                                      !- Value Until Time 1

OS:ScheduleTypeLimits,
  {401512ca-6376-40d6-9ce2-9f83f0a1e360}, !- Handle
  Fractional,                             !- Name
  0,                                      !- Lower Limit Value
  1,                                      !- Upper Limit Value
  Continuous;                             !- Numeric Type

OS:Lights:Definition,
  {d3a161c8-29c2-4e56-a1cf-21568924b92d}, !- Handle
  MidriseApartment Apartment Lights Definition, !- Name
  Watts/Area,                             !- Design Level Calculation Method
  ,                                       !- Lighting Level {W}
  11.5173841458794,                       !- Watts per Space Floor Area {W/m2}
  ,                                       !- Watts per Person {W/person}
  0.6,                                    !- Fraction Radiant
  0.2;                                    !- Fraction Visible

OS:AdditionalProperties,
  {c6b0cc24-a846-4383-83d9-c62296c13111}, !- Handle
  {d3a161c8-29c2-4e56-a1cf-21568924b92d}, !- Object Name
  lpd_fraction_linear_fluorescent,        !- Feature Name 1
  Double,                                 !- Feature Data Type 1
  1;                                      !- Feature Value 1

OS:Lights:Definition,
  {1a853a28-2fc5-4632-ab19-70f7e97dd034}, !- Handle
  MidriseApartment Apartment Additional Lights Definition, !- Name
  Watts/Area,                             !- Design Level Calculation Method
  ,                                       !- Lighting Level {W}
  2.90625581251162,                       !- Watts per Space Floor Area {W/m2}
  ,                                       !- Watts per Person {W/person}
  0.6,                                    !- Fraction Radiant
  0.2,                                    !- Fraction Visible
  0;                                      !- Return Air Fraction

OS:ElectricEquipment:Definition,
  {1ecaab6e-cb3c-438a-b9b4-332620d9b2bd}, !- Handle
  MidriseApartment Apartment Elec Equip Definition, !- Name
  Watts/Area,                             !- Design Level Calculation Method
  ,                                       !- Design Level {W}
  6.67,                                   !- Watts per Space Floor Area {W/m2}
  ,                                       !- Watts per Person {W/person}
  ,                                       !- Fraction Latent
  0.5;                                    !- Fraction Radiant

OS:DesignSpecification:OutdoorAir,
  {c212ec17-1abc-4d95-bd97-b5e3350fd2d4}, !- Handle
  MidriseApartment Apartment Ventilation, !- Name
  Sum,                                    !- Outdoor Air Method
  ,                                       !- Outdoor Air Flow per Person {m3/s-person}
  ,                                       !- Outdoor Air Flow per Floor Area {m3/s-m2}
  ,                                       !- Outdoor Air Flow Rate {m3/s}
  0.35,                                   !- Outdoor Air Flow Air Changes per Hour {1/hr}
  ;                                       !- Outdoor Air Flow Rate Fraction Schedule Name

OS:DefaultScheduleSet,
  {d99e8562-53c3-4eed-9256-69a7093dfc18}, !- Handle
  MidriseApartment Apartment Schedule Set, !- Name
  ,                                       !- Hours of Operation Schedule Name
  {31c528ac-9ddf-4593-b3a1-66949dcbd1ae}, !- Number of People Schedule Name
  {a884038d-33b0-4b55-bc01-d99b9e50b849}, !- People Activity Level Schedule Name
  {2d9a76b8-f446-44b9-bc0b-5d9d1befaa20}, !- Lighting Schedule Name
  {8571e324-07b3-4588-9ff7-239874c2dce9}, !- Electric Equipment Schedule Name
  ,                                       !- Gas Equipment Schedule Name
  ,                                       !- Hot Water Equipment Schedule Name
  {bdda4d13-59f4-46fa-91fb-59756e1bb250}, !- Infiltration Schedule Name
  ,                                       !- Steam Equipment Schedule Name
  ;                                       !- Other Equipment Schedule Name

OS:Schedule:Ruleset,
  {31c528ac-9ddf-4593-b3a1-66949dcbd1ae}, !- Handle
  ApartmentMidRise OCC_APT_SCH,           !- Name
  {401512ca-6376-40d6-9ce2-9f83f0a1e360}, !- Schedule Type Limits Name
  {2ee121ed-195c-4f51-96d7-2062c73348b0}, !- Default Day Schedule Name
  {c8985958-3085-400a-8dd5-15bd4600b578}, !- Summer Design Day Schedule Name
  {c2154d0f-90c4-40d9-8b31-5a07d56b4644}; !- Winter Design Day Schedule Name

OS:Schedule:Day,
  {2ee121ed-195c-4f51-96d7-2062c73348b0}, !- Handle
  ApartmentMidRise OCC_APT_SCH Default,   !- Name
  {401512ca-6376-40d6-9ce2-9f83f0a1e360}, !- Schedule Type Limits Name
  ,                                       !- Interpolate to Timestep
  7,                                      !- Hour 1
  0,                                      !- Minute 1
  1,                                      !- Value Until Time 1
  8,                                      !- Hour 2
  0,                                      !- Minute 2
  0.85,                                   !- Value Until Time 2
  9,                                      !- Hour 3
  0,                                      !- Minute 3
  0.39,                                   !- Value Until Time 3
  16,                                     !- Hour 4
  0,                                      !- Minute 4
  0.25,                                   !- Value Until Time 4
  17,                                     !- Hour 5
  0,                                      !- Minute 5
  0.3,                                    !- Value Until Time 5
  18,                                     !- Hour 6
  0,                                      !- Minute 6
  0.52,                                   !- Value Until Time 6
  21,                                     !- Hour 7
  0,                                      !- Minute 7
  0.87,                                   !- Value Until Time 7
  24,                                     !- Hour 8
  0,                                      !- Minute 8
  1;                                      !- Value Until Time 8

OS:Schedule:Day,
  {c2154d0f-90c4-40d9-8b31-5a07d56b4644}, !- Handle
  ApartmentMidRise OCC_APT_SCH Winter Design Day, !- Name
  {401512ca-6376-40d6-9ce2-9f83f0a1e360}, !- Schedule Type Limits Name
  ,                                       !- Interpolate to Timestep
  7,                                      !- Hour 1
  0,                                      !- Minute 1
  1,                                      !- Value Until Time 1
  8,                                      !- Hour 2
  0,                                      !- Minute 2
  0.85,                                   !- Value Until Time 2
  9,                                      !- Hour 3
  0,                                      !- Minute 3
  0.39,                                   !- Value Until Time 3
  16,                                     !- Hour 4
  0,                                      !- Minute 4
  0.25,                                   !- Value Until Time 4
  17,                                     !- Hour 5
  0,                                      !- Minute 5
  0.3,                                    !- Value Until Time 5
  18,                                     !- Hour 6
  0,                                      !- Minute 6
  0.52,                                   !- Value Until Time 6
  21,                                     !- Hour 7
  0,                                      !- Minute 7
  0.87,                                   !- Value Until Time 7
  24,                                     !- Hour 8
  0,                                      !- Minute 8
  1;                                      !- Value Until Time 8

OS:Schedule:Day,
  {c8985958-3085-400a-8dd5-15bd4600b578}, !- Handle
  ApartmentMidRise OCC_APT_SCH Summer Design Day, !- Name
  {401512ca-6376-40d6-9ce2-9f83f0a1e360}, !- Schedule Type Limits Name
  ,                                       !- Interpolate to Timestep
  7,                                      !- Hour 1
  0,                                      !- Minute 1
  1,                                      !- Value Until Time 1
  8,                                      !- Hour 2
  0,                                      !- Minute 2
  0.85,                                   !- Value Until Time 2
  9,                                      !- Hour 3
  0,                                      !- Minute 3
  0.39,                                   !- Value Until Time 3
  16,                                     !- Hour 4
  0,                                      !- Minute 4
  0.25,                                   !- Value Until Time 4
  17,                                     !- Hour 5
  0,                                      !- Minute 5
  0.3,                                    !- Value Until Time 5
  18,                                     !- Hour 6
  0,                                      !- Minute 6
  0.52,                                   !- Value Until Time 6
  21,                                     !- Hour 7
  0,                                      !- Minute 7
  0.87,                                   !- Value Until Time 7
  24,                                     !- Hour 8
  0,                                      !- Minute 8
  1;                                      !- Value Until Time 8

OS:Schedule:Ruleset,
  {a884038d-33b0-4b55-bc01-d99b9e50b849}, !- Handle
  ApartmentMidRise Activity Schedule,     !- Name
  {44eebd98-486a-43fb-b7c9-432c92efe206}, !- Schedule Type Limits Name
  {c9669aaf-4fb3-4a47-93c4-5460dcbfe331}, !- Default Day Schedule Name
  {a25cc9d4-2b90-4733-b2bc-f948c13f0cd7}, !- Summer Design Day Schedule Name
  {97f75248-636f-4057-88d2-8fb1c870546c}; !- Winter Design Day Schedule Name

OS:Schedule:Day,
  {c9669aaf-4fb3-4a47-93c4-5460dcbfe331}, !- Handle
  ApartmentMidRise Activity Schedule Default, !- Name
  {44eebd98-486a-43fb-b7c9-432c92efe206}, !- Schedule Type Limits Name
  ,                                       !- Interpolate to Timestep
  24,                                     !- Hour 1
  0,                                      !- Minute 1
  95;                                     !- Value Until Time 1

OS:Schedule:Day,
  {97f75248-636f-4057-88d2-8fb1c870546c}, !- Handle
  ApartmentMidRise Activity Schedule Winter Design Day, !- Name
  {44eebd98-486a-43fb-b7c9-432c92efe206}, !- Schedule Type Limits Name
  ,                                       !- Interpolate to Timestep
  24,                                     !- Hour 1
  0,                                      !- Minute 1
  95;                                     !- Value Until Time 1

OS:Schedule:Day,
  {a25cc9d4-2b90-4733-b2bc-f948c13f0cd7}, !- Handle
  ApartmentMidRise Activity Schedule Summer Design Day, !- Name
  {44eebd98-486a-43fb-b7c9-432c92efe206}, !- Schedule Type Limits Name
  ,                                       !- Interpolate to Timestep
  24,                                     !- Hour 1
  0,                                      !- Minute 1
  95;                                     !- Value Until Time 1

OS:ScheduleTypeLimits,
  {44eebd98-486a-43fb-b7c9-432c92efe206}, !- Handle
  ActivityLevel,                          !- Name
  0,                                      !- Lower Limit Value
  ,                                       !- Upper Limit Value
  Continuous,                             !- Numeric Type
  ActivityLevel;                          !- Unit Type

OS:Schedule:Ruleset,
  {2d9a76b8-f446-44b9-bc0b-5d9d1befaa20}, !- Handle
  ApartmentMidRise LTG_APT_SCH,           !- Name
  {401512ca-6376-40d6-9ce2-9f83f0a1e360}, !- Schedule Type Limits Name
  {14f25a72-e39b-487a-b0eb-2fad8e140607}, !- Default Day Schedule Name
  {cacf93cb-f00f-4a58-a447-c7e55bfe7ec7}, !- Summer Design Day Schedule Name
  {1f934dc4-d5c4-47d9-9ba8-170235b324eb}; !- Winter Design Day Schedule Name

OS:Schedule:Day,
  {14f25a72-e39b-487a-b0eb-2fad8e140607}, !- Handle
  ApartmentMidRise LTG_APT_SCH Default,   !- Name
  {401512ca-6376-40d6-9ce2-9f83f0a1e360}, !- Schedule Type Limits Name
  ,                                       !- Interpolate to Timestep
  4,                                      !- Hour 1
  0,                                      !- Minute 1
  0.011316031,                            !- Value Until Time 1
  5,                                      !- Hour 2
  0,                                      !- Minute 2
  0.033948092,                            !- Value Until Time 2
  6,                                      !- Hour 3
  0,                                      !- Minute 3
  0.0735542,                              !- Value Until Time 3
  7,                                      !- Hour 4
  0,                                      !- Minute 4
  0.079212215,                            !- Value Until Time 4
  8,                                      !- Hour 5
  0,                                      !- Minute 5
  0.0735542,                              !- Value Until Time 5
  9,                                      !- Hour 6
  0,                                      !- Minute 6
  0.033948092,                            !- Value Until Time 6
  15,                                     !- Hour 7
  0,                                      !- Minute 7
  0.022632061,                            !- Value Until Time 7
  16,                                     !- Hour 8
  0,                                      !- Minute 8
  0.039606108,                            !- Value Until Time 8
  17,                                     !- Hour 9
  0,                                      !- Minute 9
  0.079212215,                            !- Value Until Time 9
  18,                                     !- Hour 10
  0,                                      !- Minute 10
  0.113160307,                            !- Value Until Time 10
  19,                                     !- Hour 11
  0,                                      !- Minute 11
  0.152766415,                            !- Value Until Time 11
  21,                                     !- Hour 12
  0,                                      !- Minute 12
  0.181056492,                            !- Value Until Time 12
  22,                                     !- Hour 13
  0,                                      !- Minute 13
  0.124476338,                            !- Value Until Time 13
  23,                                     !- Hour 14
  0,                                      !- Minute 14
  0.067896184,                            !- Value Until Time 14
  24,                                     !- Hour 15
  0,                                      !- Minute 15
  0.028290077;                            !- Value Until Time 15

OS:Schedule:Day,
  {1f934dc4-d5c4-47d9-9ba8-170235b324eb}, !- Handle
  ApartmentMidRise LTG_APT_SCH Winter Design Day, !- Name