
OS:Version,
  {148aed51-6066-46db-9c06-81b8bba508d4}, !- Handle
  2.8.1;                                  !- Version Identifier

OS:Facility,
  {757f2ef5-66d0-4031-a1e1-cd9e0c58d3cb}; !- Handle

OS:Site,
  {ee7b407c-0e5f-49e6-ba59-c31ad008225d}, !- Handle
  Buffalo Niagara Intl Ap_NY_USA,         !- Name
  42.8140105966668,                       !- Latitude {deg}
  -78.8486903952376,                      !- Longitude {deg}
  -5,                                     !- Time Zone {hr}
  215,                                    !- Elevation {m}
  City;                                   !- Terrain

OS:SimulationControl,
  {922f3136-0535-4e3f-965d-b3376ee12231}, !- Handle
  ,                                       !- Do Zone Sizing Calculation
  ,                                       !- Do System Sizing Calculation
  ,                                       !- Do Plant Sizing Calculation
  No,                                     !- Run Simulation for Sizing Periods
  Yes;                                    !- Run Simulation for Weather File Run Periods

OS:Sizing:Parameters,
  {d34fdc62-e946-4fe8-a55f-e88d3b48a15b}, !- Handle
  1.25,                                   !- Heating Sizing Factor
  1.15;                                   !- Cooling Sizing Factor

OS:Timestep,
  {e7972d6b-0383-4a2d-a840-608f9390cb3c}, !- Handle
  2;                                      !- Number of Timesteps per Hour

OS:ShadowCalculation,
  {7fe75618-ee96-4409-a30c-2faa37dd40c1}, !- Handle
  20,                                     !- Calculation Frequency
  15000;                                  !- Maximum Figures in Shadow Overlap Calculations

OS:HeatBalanceAlgorithm,
  {afde2862-524f-474a-959b-49b09a07a1ba}, !- Handle
  ConductionTransferFunction,             !- Algorithm
  200;                                    !- Surface Temperature Upper Limit {C}

OS:RunPeriod,
  {cea29873-18c2-40d8-8483-36f2f566522b}, !- Handle
  Run Period 1,                           !- Name
  6,                                      !- Begin Month
  1,                                      !- Begin Day of Month
  8,                                      !- End Month
  1,                                      !- End Day of Month
  ,                                       !- Use Weather File Holidays and Special Days
  ,                                       !- Use Weather File Daylight Saving Period
  ,                                       !- Apply Weekend Holiday Rule
  ,                                       !- Use Weather File Rain Indicators
  ,                                       !- Use Weather File Snow Indicators
  ;                                       !- Number of Times Runperiod to be Repeated

OS:LifeCycleCost:Parameters,
  {9df69e8d-1349-483b-be47-1a80b8dfd826}, !- Handle
  ,                                       !- Analysis Type
  ,                                       !- Discounting Convention
  ,                                       !- Inflation Approach
  ,                                       !- Real Discount Rate
  ,                                       !- Nominal Discount Rate
  ,                                       !- Inflation
  ,                                       !- Base Date Month
  ,                                       !- Base Date Year
  ,                                       !- Service Date Month
  ,                                       !- Service Date Year
  ;                                       !- Length of Study Period in Years

OS:YearDescription,
  {f89b14f5-34f3-43d8-b0ac-1ffe6e182a2f}, !- Handle
  2019,                                   !- Calendar Year
  ,                                       !- Day of Week for Start Day
  ;                                       !- Is Leap Year

OS:WeatherFile,
  {51b521fa-0213-4fe6-82f2-56563fd01331}, !- Handle
  Buffalo Niagara Intl Ap,                !- City
  NY,                                     !- State Province Region
  USA,                                    !- Country
  TMY3,                                   !- Data Source
  725280,                                 !- WMO Number
  42.93,                                  !- Latitude {deg}
  -78.73,                                 !- Longitude {deg}
  -5,                                     !- Time Zone {hr}
  215,                                    !- Elevation {m}
  file:///C:/gitrepos/urbanopt-example-geojson-project/weather/USA_NY_Buffalo-Greater.Buffalo.Intl.AP.725280_TMY3.epw, !- Url
  ;                                       !- Checksum

OS:Site:WaterMainsTemperature,
  {99e4a1d9-3a1f-4aac-95ee-b1d2ba98ef44}, !- Handle
  Correlation,                            !- Calculation Method
  ,                                       !- Temperature Schedule Name
  8.96666666666667,                       !- Annual Average Outdoor Air Temperature {C}
  26.2;                                   !- Maximum Difference In Monthly Average Outdoor Air Temperatures {deltaC}

OS:SizingPeriod:DesignDay,
  {e642a76f-434e-401f-a677-5aa0a21c3cad}, !- Handle
  Buffalo Niagara Intl Ap Ann Htg 99.6% Condns DB, !- Name
  -16.3,                                  !- Maximum Dry-Bulb Temperature {C}
  0,                                      !- Daily Dry-Bulb Temperature Range {deltaC}
  -16.3,                                  !- Humidity Indicating Conditions at Maximum Dry-Bulb
  98769,                                  !- Barometric Pressure {Pa}
  5.1,                                    !- Wind Speed {m/s}
  270,                                    !- Wind Direction {deg}
  0,                                      !- Sky Clearness
  0,                                      !- Rain Indicator
  0,                                      !- Snow Indicator
  21,                                     !- Day of Month
  1,                                      !- Month
  WinterDesignDay,                        !- Day Type
  0,                                      !- Daylight Saving Time Indicator
  Wetbulb,                                !- Humidity Indicating Type
  ,                                       !- Humidity Indicating Day Schedule Name
  DefaultMultipliers,                     !- Dry-Bulb Temperature Range Modifier Type
  ,                                       !- Dry-Bulb Temperature Range Modifier Schedule Name
  ASHRAEClearSky;                         !- Solar Model Indicator

OS:SizingPeriod:DesignDay,
  {2bb1cd01-3831-4dcf-b974-dd5baed88ad0}, !- Handle
  Buffalo Niagara Intl Ap Ann Clg .4% Condns DB=>MWB, !- Name
  30.3,                                   !- Maximum Dry-Bulb Temperature {C}
  9.3,                                    !- Daily Dry-Bulb Temperature Range {deltaC}
  21.8,                                   !- Humidity Indicating Conditions at Maximum Dry-Bulb
  98769,                                  !- Barometric Pressure {Pa}
  5.7,                                    !- Wind Speed {m/s}
  240,                                    !- Wind Direction {deg}
  0,                                      !- Sky Clearness
  0,                                      !- Rain Indicator
  0,                                      !- Snow Indicator
  21,                                     !- Day of Month
  7,                                      !- Month
  SummerDesignDay,                        !- Day Type
  0,                                      !- Daylight Saving Time Indicator
  Wetbulb,                                !- Humidity Indicating Type
  ,                                       !- Humidity Indicating Day Schedule Name
  DefaultMultipliers,                     !- Dry-Bulb Temperature Range Modifier Type
  ,                                       !- Dry-Bulb Temperature Range Modifier Schedule Name
  ASHRAETau,                              !- Solar Model Indicator
  ,                                       !- Beam Solar Day Schedule Name
  ,                                       !- Diffuse Solar Day Schedule Name
  0.462,                                  !- ASHRAE Taub {dimensionless}
  2.001;                                  !- ASHRAE Taud {dimensionless}

OS:SizingPeriod:DesignDay,
  {f61ab433-3111-403a-88dc-a9231c2b60ad}, !- Handle
  Buffalo Niagara Intl Ap Ann Clg .4% Condns WB=>MDB, !- Name
  27.8,                                   !- Maximum Dry-Bulb Temperature {C}
  9.3,                                    !- Daily Dry-Bulb Temperature Range {deltaC}
  23.8,                                   !- Humidity Indicating Conditions at Maximum Dry-Bulb
  98769,                                  !- Barometric Pressure {Pa}
  5.7,                                    !- Wind Speed {m/s}
  240,                                    !- Wind Direction {deg}
  0,                                      !- Sky Clearness
  0,                                      !- Rain Indicator
  0,                                      !- Snow Indicator
  21,                                     !- Day of Month
  7,                                      !- Month
  SummerDesignDay,                        !- Day Type
  0,                                      !- Daylight Saving Time Indicator
  Wetbulb,                                !- Humidity Indicating Type
  ,                                       !- Humidity Indicating Day Schedule Name
  DefaultMultipliers,                     !- Dry-Bulb Temperature Range Modifier Type
  ,                                       !- Dry-Bulb Temperature Range Modifier Schedule Name
  ASHRAETau,                              !- Solar Model Indicator
  ,                                       !- Beam Solar Day Schedule Name
  ,                                       !- Diffuse Solar Day Schedule Name
  0.462,                                  !- ASHRAE Taub {dimensionless}
  2.001;                                  !- ASHRAE Taud {dimensionless}

OS:ClimateZones,
  {13d3945c-7f7c-46f7-8f79-c6caed8ffacd}, !- Handle
  ,                                       !- Active Institution
  ,                                       !- Active Year
  ASHRAE,                                 !- Climate Zone Institution Name 1
  ANSI/ASHRAE Standard 169,               !- Climate Zone Document Name 1
  2006,                                   !- Climate Zone Document Year 1
  6A;                                     !- Climate Zone Value 1

OS:RunPeriodControl:DaylightSavingTime,
  {427aae80-0f65-4a4b-9817-eee4b7187765}, !- Handle
  2nd Sunday in March,                    !- Start Date
  1st Sunday in November;                 !- End Date

OS:People:Definition,
  {31eac601-746f-42a1-b7a9-dc4878960c9c}, !- Handle
  MidriseApartment Office People Definition, !- Name
  People/Area,                            !- Number of People Calculation Method
  ,                                       !- Number of People {people}
  0.0227118509792575,                     !- People per Space Floor Area {person/m2}
  ,                                       !- Space Floor Area per Person {m2/person}
  0.3;                                    !- Fraction Radiant

OS:Schedule:Ruleset,
  {b26c7cbb-05e2-4a53-b71b-71c5d86c2b47}, !- Handle
  Clothing Schedule,                      !- Name
  {de7c4f47-a1cf-4add-937a-bb02b0a61b56}, !- Schedule Type Limits Name
  {c516bc5b-c105-4a63-a8bc-c1230379b9eb}; !- Default Day Schedule Name

OS:Schedule:Day,
  {c516bc5b-c105-4a63-a8bc-c1230379b9eb}, !- Handle
  Clothing Schedule Default Winter Clothes, !- Name
  {de7c4f47-a1cf-4add-937a-bb02b0a61b56}, !- Schedule Type Limits Name
  ,                                       !- Interpolate to Timestep
  24,                                     !- Hour 1
  0,                                      !- Minute 1
  1;                                      !- Value Until Time 1

OS:Schedule:Rule,
  {0f9af062-919c-42e0-9d36-10de924d5ce4}, !- Handle
  Schedule Rule 1,                        !- Name
  {b26c7cbb-05e2-4a53-b71b-71c5d86c2b47}, !- Schedule Ruleset Name
  0,                                      !- Rule Order
  {bd9081c4-2eb0-4535-8120-705b131934a7}, !- Day Schedule Name
  ,                                       !- Apply Sunday
  ,                                       !- Apply Monday
  ,                                       !- Apply Tuesday
  ,                                       !- Apply Wednesday
  ,                                       !- Apply Thursday
  ,                                       !- Apply Friday
  ,                                       !- Apply Saturday
  ,                                       !- Apply Holiday
  DateRange,                              !- Date Specification Type
  5,                                      !- Start Month
  1,                                      !- Start Day
  9,                                      !- End Month
  30;                                     !- End Day

OS:Schedule:Day,
  {bd9081c4-2eb0-4535-8120-705b131934a7}, !- Handle
  Clothing Schedule Summer Clothes,       !- Name
  {de7c4f47-a1cf-4add-937a-bb02b0a61b56}, !- Schedule Type Limits Name
  ,                                       !- Interpolate to Timestep
  24,                                     !- Hour 1
  0,                                      !- Minute 1
  0.5;                                    !- Value Until Time 1

OS:ScheduleTypeLimits,
  {de7c4f47-a1cf-4add-937a-bb02b0a61b56}, !- Handle
  ClothingInsulation,                     !- Name
  0,                                      !- Lower Limit Value
  ,                                       !- Upper Limit Value
  Continuous,                             !- Numeric Type
  ClothingInsulation;                     !- Unit Type

OS:Schedule:Ruleset,
  {69794b95-c289-43da-b123-28365f251e8d}, !- Handle
  Air Velocity Schedule,                  !- Name
  {5e4a6ae4-ceef-4480-9f75-e9f3a7c1519e}, !- Schedule Type Limits Name
  {0075b009-42d6-45e2-aa38-0aef61c53751}; !- Default Day Schedule Name

OS:Schedule:Day,
  {0075b009-42d6-45e2-aa38-0aef61c53751}, !- Handle
  Air Velocity Schedule Default,          !- Name
  {5e4a6ae4-ceef-4480-9f75-e9f3a7c1519e}, !- Schedule Type Limits Name
  ,                                       !- Interpolate to Timestep
  24,                                     !- Hour 1
  0,                                      !- Minute 1
  0.2;                                    !- Value Until Time 1

OS:ScheduleTypeLimits,
  {5e4a6ae4-ceef-4480-9f75-e9f3a7c1519e}, !- Handle
  Velocity,                               !- Name
  0,                                      !- Lower Limit Value
  ,                                       !- Upper Limit Value
  Continuous,                             !- Numeric Type
  Velocity;                               !- Unit Type

OS:Schedule:Ruleset,
  {b4c32ffa-28b5-46b2-9f27-6e2780103507}, !- Handle
  Work Efficiency Schedule,               !- Name
  {195eab34-a723-410e-815d-2336f6f89629}, !- Schedule Type Limits Name
  {303ef5b5-36af-429a-8c28-536177d11245}; !- Default Day Schedule Name

OS:Schedule:Day,
  {303ef5b5-36af-429a-8c28-536177d11245}, !- Handle
  Work Efficiency Schedule Default,       !- Name
  {195eab34-a723-410e-815d-2336f6f89629}, !- Schedule Type Limits Name
  ,                                       !- Interpolate to Timestep
  24,                                     !- Hour 1
  0,                                      !- Minute 1
  0;                                      !- Value Until Time 1

OS:ScheduleTypeLimits,
  {195eab34-a723-410e-815d-2336f6f89629}, !- Handle
  Fractional,                             !- Name
  0,                                      !- Lower Limit Value
  1,                                      !- Upper Limit Value
  Continuous;                             !- Numeric Type

OS:Lights:Definition,
  {c9360324-04a8-44cb-a42b-63b5de197338}, !- Handle
  MidriseApartment Office Lights Definition, !- Name
  Watts/Area,                             !- Design Level Calculation Method
  ,                                       !- Lighting Level {W}
  11.8403014583807,                       !- Watts per Space Floor Area {W/m2}
  ,                                       !- Watts per Person {W/person}
  0.6,                                    !- Fraction Radiant
  0.2;                                    !- Fraction Visible

OS:AdditionalProperties,
  {5d802b4f-42f7-4d78-af03-81f866bf91f5}, !- Handle
  {c9360324-04a8-44cb-a42b-63b5de197338}, !- Object Name
  lpd_fraction_linear_fluorescent,        !- Feature Name 1
  Double,                                 !- Feature Data Type 1
  1;                                      !- Feature Value 1

OS:ElectricEquipment:Definition,
  {f3125210-fb10-4d8d-8f55-3fc812a17424}, !- Handle
  MidriseApartment Office Elec Equip Definition, !- Name
  Watts/Area,                             !- Design Level Calculation Method
  ,                                       !- Design Level {W}
  6.67,                                   !- Watts per Space Floor Area {W/m2}
  ,                                       !- Watts per Person {W/person}
  ,                                       !- Fraction Latent
  0.5;                                    !- Fraction Radiant

OS:DesignSpecification:OutdoorAir,
  {9af8975e-2f71-46d8-8cd6-9ae45d262fba}, !- Handle
  MidriseApartment Office Ventilation,    !- Name
  Sum,                                    !- Outdoor Air Method
  ,                                       !- Outdoor Air Flow per Person {m3/s-person}
  0.000508,                               !- Outdoor Air Flow per Floor Area {m3/s-m2}
  ,                                       !- Outdoor Air Flow Rate {m3/s}
  ,                                       !- Outdoor Air Flow Air Changes per Hour {1/hr}
  ;                                       !- Outdoor Air Flow Rate Fraction Schedule Name

OS:DefaultScheduleSet,
  {83ebc28b-bef6-4e11-854b-fbe5d2691518}, !- Handle
  MidriseApartment Office Schedule Set,   !- Name
  ,                                       !- Hours of Operation Schedule Name
  {d3eeeeff-afc3-433f-bd03-39c65b76f2ed}, !- Number of People Schedule Name
  {a8ec9cdd-b376-4f1c-89aa-8dd15de81592}, !- People Activity Level Schedule Name
  {8e20d885-8456-4fe6-bf5c-5c8aa68eb77a}, !- Lighting Schedule Name
  {a5a1f4a3-e70c-42af-9528-667dbb7121cd}, !- Electric Equipment Schedule Name
  ,                                       !- Gas Equipment Schedule Name
  ,                                       !- Hot Water Equipment Schedule Name
  {6ac6bc29-928f-4e65-b920-a79e1d7de635}, !- Infiltration Schedule Name
  ,                                       !- Steam Equipment Schedule Name
  ;                                       !- Other Equipment Schedule Name

OS:Schedule:Ruleset,
  {d3eeeeff-afc3-433f-bd03-39c65b76f2ed}, !- Handle
  ApartmentMidRise OCC_OFF_SCH,           !- Name
  {195eab34-a723-410e-815d-2336f6f89629}, !- Schedule Type Limits Name
  {a8f763ff-5712-4c7c-8d57-c98cc35fb2ca}, !- Default Day Schedule Name
  {eaf12860-2af0-420f-9f25-e259bbb42fef}, !- Summer Design Day Schedule Name
  {03ce25d1-851c-453d-b17c-1a2eed23e59b}; !- Winter Design Day Schedule Name

OS:Schedule:Day,
  {a8f763ff-5712-4c7c-8d57-c98cc35fb2ca}, !- Handle
  ApartmentMidRise OCC_OFF_SCH Default,   !- Name
  {195eab34-a723-410e-815d-2336f6f89629}, !- Schedule Type Limits Name
  ,                                       !- Interpolate to Timestep
  24,                                     !- Hour 1
  0,                                      !- Minute 1
  0;                                      !- Value Until Time 1

OS:Schedule:Day,
  {03ce25d1-851c-453d-b17c-1a2eed23e59b}, !- Handle
  ApartmentMidRise OCC_OFF_SCH Winter Design Day, !- Name
  {195eab34-a723-410e-815d-2336f6f89629}, !- Schedule Type Limits Name
  ,                                       !- Interpolate to Timestep
  24,                                     !- Hour 1
  0,                                      !- Minute 1
  0;                                      !- Value Until Time 1

OS:Schedule:Day,
  {eaf12860-2af0-420f-9f25-e259bbb42fef}, !- Handle
  ApartmentMidRise OCC_OFF_SCH Summer Design Day, !- Name
  {195eab34-a723-410e-815d-2336f6f89629}, !- Schedule Type Limits Name
  ,                                       !- Interpolate to Timestep
  24,                                     !- Hour 1
  0,                                      !- Minute 1
  0;                                      !- Value Until Time 1

OS:Schedule:Rule,
  {8fd9c5ed-e4f4-44ef-b467-0b91319ed644}, !- Handle
  Schedule Rule 2,                        !- Name
  {d3eeeeff-afc3-433f-bd03-39c65b76f2ed}, !- Schedule Ruleset Name
  0,                                      !- Rule Order
  {1ba5636c-2fdb-4192-b824-87dd51c4816d}, !- Day Schedule Name
  ,                                       !- Apply Sunday
  Yes,                                    !- Apply Monday
  Yes,                                    !- Apply Tuesday
  Yes,                                    !- Apply Wednesday
  Yes,                                    !- Apply Thursday
  Yes,                                    !- Apply Friday
  ,                                       !- Apply Saturday
  ,                                       !- Apply Holiday
  DateRange,                              !- Date Specification Type
  1,                                      !- Start Month
  1,                                      !- Start Day
  12,                                     !- End Month
  31;                                     !- End Day

OS:Schedule:Day,
  {1ba5636c-2fdb-4192-b824-87dd51c4816d}, !- Handle
  ApartmentMidRise OCC_OFF_SCH Wkdy Day,  !- Name
  {195eab34-a723-410e-815d-2336f6f89629}, !- Schedule Type Limits Name
  ,                                       !- Interpolate to Timestep
  8,                                      !- Hour 1
  0,                                      !- Minute 1
  0,                                      !- Value Until Time 1
  12,                                     !- Hour 2
  0,                                      !- Minute 2
  1,                                      !- Value Until Time 2
  13,                                     !- Hour 3
  0,                                      !- Minute 3
  0.5,                                    !- Value Until Time 3
  17,                                     !- Hour 4
  0,                                      !- Minute 4
  1,                                      !- Value Until Time 4
  24,                                     !- Hour 5
  0,                                      !- Minute 5
  0;                                      !- Value Until Time 5

OS:Schedule:Ruleset,
  {a8ec9cdd-b376-4f1c-89aa-8dd15de81592}, !- Handle
  ApartmentMidRise Activity Schedule,     !- Name
  {d64cd07a-b198-4039-94f0-3f19e0e08b37}, !- Schedule Type Limits Name
  {a1641b74-70ad-4280-b429-36aecdfc086d}, !- Default Day Schedule Name
  {9b536a63-dbbd-4007-b339-7b59cda458a8}, !- Summer Design Day Schedule Name
  {4123ee6c-df34-4b68-aaa4-9dba675210e4}; !- Winter Design Day Schedule Name

OS:Schedule:Day,
  {a1641b74-70ad-4280-b429-36aecdfc086d}, !- Handle
  ApartmentMidRise Activity Schedule Default, !- Name
  {d64cd07a-b198-4039-94f0-3f19e0e08b37}, !- Schedule Type Limits Name
  ,                                       !- Interpolate to Timestep
  24,                                     !- Hour 1
  0,                                      !- Minute 1
  95;                                     !- Value Until Time 1

OS:Schedule:Day,
  {4123ee6c-df34-4b68-aaa4-9dba675210e4}, !- Handle
  ApartmentMidRise Activity Schedule Winter Design Day, !- Name
  {d64cd07a-b198-4039-94f0-3f19e0e08b37}, !- Schedule Type Limits Name
  ,                                       !- Interpolate to Timestep
  24,                                     !- Hour 1
  0,                                      !- Minute 1
  95;                                     !- Value Until Time 1

OS:Schedule:Day,
  {9b536a63-dbbd-4007-b339-7b59cda458a8}, !- Handle
  ApartmentMidRise Activity Schedule Summer Design Day, !- Name
  {d64cd07a-b198-4039-94f0-3f19e0e08b37}, !- Schedule Type Limits Name
  ,                                       !- Interpolate to Timestep
  24,                                     !- Hour 1
  0,                                      !- Minute 1
  95;                                     !- Value Until Time 1

OS:ScheduleTypeLimits,
  {d64cd07a-b198-4039-94f0-3f19e0e08b37}, !- Handle
  ActivityLevel,                          !- Name
  0,                                      !- Lower Limit Value
  ,                                       !- Upper Limit Value
  Continuous,                             !- Numeric Type
  ActivityLevel;                          !- Unit Type

OS:Schedule:Ruleset,
  {8e20d885-8456-4fe6-bf5c-5c8aa68eb77a}, !- Handle
  ApartmentMidRise LTG_OFF_SCH_2004_2007, !- Name
  {195eab34-a723-410e-815d-2336f6f89629}, !- Schedule Type Limits Name
  {05a3b426-2b7c-40d3-b00f-0d607a30aa75}, !- Default Day Schedule Name
  {03c054ef-27ac-45f8-b380-e9501242e0e1}, !- Summer Design Day Schedule Name
  {2286aebc-9ef4-41e4-8043-ba76edd49057}; !- Winter Design Day Schedule Name

OS:Schedule:Day,
  {05a3b426-2b7c-40d3-b00f-0d607a30aa75}, !- Handle
  ApartmentMidRise LTG_OFF_SCH_2004_2007 Default, !- Name
  {195eab34-a723-410e-815d-2336f6f89629}, !- Schedule Type Limits Name
  ,                                       !- Interpolate to Timestep
  24,                                     !- Hour 1
  0,                                      !- Minute 1
  0.18;                                   !- Value Until Time 1

OS:Schedule:Day,
  {03c054ef-27ac-45f8-b380-e9501242e0e1}, !- Handle
  ApartmentMidRise LTG_OFF_SCH_2004_2007 Summer Design Day, !- Name
  {195eab34-a723-410e-815d-2336f6f89629}, !- Schedule Type Limits Name
  ,                                       !- Interpolate to Timestep
  24,                                     !- Hour 1
  0,                                      !- Minute 1
  1;                                      !- Value Until Time 1

OS:Schedule:Rule,
  {bd5342d4-de28-4fa7-8cae-b5c8c069ba14}, !- Handle
  Schedule Rule 3,                        !- Name
  {8e20d885-8456-4fe6-bf5c-5c8aa68eb77a}, !- Schedule Ruleset Name
  0,                                      !- Rule Order
  {90b100a3-9ab9-4faf-abff-19c6ed66d1ef}, !- Day Schedule Name
  ,                                       !- Apply Sunday
  Yes,                                    !- Apply Monday
  Yes,                                    !- Apply Tuesday
  Yes,                                    !- Apply Wednesday
  Yes,                                    !- Apply Thursday
  Yes,                                    !- Apply Friday
  ,                                       !- Apply Saturday
  ,                                       !- Apply Holiday
  DateRange,                              !- Date Specification Type
  1,                                      !- Start Month
  1,                                      !- Start Day
  12,                                     !- End Month
  31;                                     !- End Day

OS:Schedule:Day,
  {90b100a3-9ab9-4faf-abff-19c6ed66d1ef}, !- Handle
  ApartmentMidRise LTG_OFF_SCH_2004_2007 Wkdy Day, !- Name
  {195eab34-a723-410e-815d-2336f6f89629}, !- Schedule Type Limits Name
  ,                                       !- Interpolate to Timestep
  8,                                      !- Hour 1
  0,                                      !- Minute 1
  0.18,                                   !- Value Until Time 1
  12,                                     !- Hour 2
  0,                                      !- Minute 2
  0.9,                                    !- Value Until Time 2
  13,                                     !- Hour 3
  0,                                      !- Minute 3
  0.8,                                    !- Value Until Time 3
  17,                                     !- Hour 4
  0,                                      !- Minute 4
  0.9,                                    !- Value Until Time 4
  24,                                     !- Hour 5
  0,                                      !- Minute 5
  0.18;                                   !- Value Until Time 5

OS:Schedule:Day,
  {2286aebc-9ef4-41e4-8043-ba76edd49057}, !- Handle
  ApartmentMidRise LTG_OFF_SCH_2004_2007 Winter Design Day, !- Name
  {195eab34-a723-410e-815d-2336f6f89629}, !- Schedule Type Limits Name
  ,                                       !- Interpolate to Timestep
  24,                                     !- Hour 1
  0,                                      !- Minute 1
  0;                                      !- Value Until Time 1

OS:Schedule:Ruleset,
  {a5a1f4a3-e70c-42af-9528-667dbb7121cd}, !- Handle
  ApartmentMidRise EQP_OFF_SCH_2004_2007, !- Name
  {195eab34-a723-410e-815d-2336f6f89629}, !- Schedule Type Limits Name
  {1e841ea5-134d-4314-91b5-ef176bb0786a}, !- Default Day Schedule Name
  {b1f1e68c-9893-425a-b96b-0a56dd8e6e13}, !- Summer Design Day Schedule Name
  {b7b359d1-d341-4977-807a-0b299c58a5bd}; !- Winter Design Day Schedule Name

OS:Schedule:Day,
  {1e841ea5-134d-4314-91b5-ef176bb0786a}, !- Handle
  ApartmentMidRise EQP_OFF_SCH_2004_2007 Default, !- Name
  {195eab34-a723-410e-815d-2336f6f89629}, !- Schedule Type Limits Name
  ,                                       !- Interpolate to Timestep
  24,                                     !- Hour 1
  0,                                      !- Minute 1
  0.33;                                   !- Value Until Time 1

OS:Schedule:Day,
  {b7b359d1-d341-4977-807a-0b299c58a5bd}, !- Handle
  ApartmentMidRise EQP_OFF_SCH_2004_2007 Winter Design Day, !- Name
  {195eab34-a723-410e-815d-2336f6f89629}, !- Schedule Type Limits Name
  ,                                       !- Interpolate to Timestep
  24,                                     !- Hour 1
  0,                                      !- Minute 1
  0.33;                                   !- Value Until Time 1

OS:Schedule:Day,
  {b1f1e68c-9893-425a-b96b-0a56dd8e6e13}, !- Handle
  ApartmentMidRise EQP_OFF_SCH_2004_2007 Summer Design Day, !- Name