
OS:Version,
  {6ef597c0-31f8-4a75-8370-49520687ff48}, !- Handle
  2.9.0;                                  !- Version Identifier

OS:Material,
  {c0ce35ce-4ee1-40ee-bcd9-9ee50811b8e0}, !- Handle
  PolyIso,                                !- Name
  MediumRough,                            !- Roughness
  0.2,                                    !- Thickness {m}
  0.03,                                   !- Conductivity {W/m-K}
  43,                                     !- Density {kg/m3}
  1210,                                   !- Specific Heat {J/kg-K}
  0.9,                                    !- Thermal Absorptance
  0.7,                                    !- Solar Absorptance
  0.7;                                    !- Visible Absorptance

OS:Material,
  {b890cc88-fcea-43fe-88fd-d8514ff28b13}, !- Handle
  Generic 50mm Insulation,                !- Name
  MediumRough,                            !- Roughness
  0.05,                                   !- Thickness {m}
  0.03,                                   !- Conductivity {W/m-K}
  43,                                     !- Density {kg/m3}
  1210,                                   !- Specific Heat {J/kg-K}
  0.9,                                    !- Thermal Absorptance
  0.7,                                    !- Solar Absorptance
  0.7;                                    !- Visible Absorptance

OS:Material,
  {a79e899f-b95d-4c33-8af4-32e20f9c06be}, !- Handle
  Generic HW Concrete,                    !- Name
  MediumRough,                            !- Roughness
  0.2,                                    !- Thickness {m}
  1.95,                                   !- Conductivity {W/m-K}
  2240,                                   !- Density {kg/m3}
  900,                                    !- Specific Heat {J/kg-K}
  0.9,                                    !- Thermal Absorptance
  0.8,                                    !- Solar Absorptance
  0.8;                                    !- Visible Absorptance

OS:Material,
  {437e0990-1440-416d-88e5-620637337699}, !- Handle
  Generic 25mm Wood,                      !- Name
  MediumSmooth,                           !- Roughness
  0.0254,                                 !- Thickness {m}
  0.15,                                   !- Conductivity {W/m-K}
  608,                                    !- Density {kg/m3}
  1630,                                   !- Specific Heat {J/kg-K}
  0.9,                                    !- Thermal Absorptance
  0.5,                                    !- Solar Absorptance
  0.5;                                    !- Visible Absorptance

OS:WindowMaterial:Glazing,
  {1b601feb-333a-45dc-b62e-0800f6da93bd}, !- Handle
  Generic Low-e Glass,                    !- Name
  SpectralAverage,                        !- Optical Data Type
  ,                                       !- Window Glass Spectral Data Set Name
  0.006,                                  !- Thickness {m}
  0.45,                                   !- Solar Transmittance at Normal Incidence
  0.36,                                   !- Front Side Solar Reflectance at Normal Incidence
  0.36,                                   !- Back Side Solar Reflectance at Normal Incidence
  0.71,                                   !- Visible Transmittance at Normal Incidence
  0.21,                                   !- Front Side Visible Reflectance at Normal Incidence
  0.21,                                   !- Back Side Visible Reflectance at Normal Incidence
  0,                                      !- Infrared Transmittance at Normal Incidence
  0.84,                                   !- Front Side Infrared Hemispherical Emissivity
  0.047,                                  !- Back Side Infrared Hemispherical Emissivity
  1,                                      !- Conductivity {W/m-K}
  1,                                      !- Dirt Correction Factor for Solar and Visible Transmittance
  No;                                     !- Solar Diffusing

OS:Material,
  {9d7654c7-016d-4025-ab6c-2ed436dbb6ad}, !- Handle
  Generic Ceiling Air Gap,                !- Name
  Smooth,                                 !- Roughness
  0.1,                                    !- Thickness {m}
  0.556,                                  !- Conductivity {W/m-K}
  1.28,                                   !- Density {kg/m3}
  1000,                                   !- Specific Heat {J/kg-K}
  0.9,                                    !- Thermal Absorptance
  0.7,                                    !- Solar Absorptance
  0.7;                                    !- Visible Absorptance

OS:WindowMaterial:Glazing,
  {971843f5-d7b7-4ebd-bebb-ef84c387ca9c}, !- Handle
  Generic Clear Glass,                    !- Name
  SpectralAverage,                        !- Optical Data Type
  ,                                       !- Window Glass Spectral Data Set Name
  0.006,                                  !- Thickness {m}
  0.77,                                   !- Solar Transmittance at Normal Incidence
  0.07,                                   !- Front Side Solar Reflectance at Normal Incidence
  0.07,                                   !- Back Side Solar Reflectance at Normal Incidence
  0.88,                                   !- Visible Transmittance at Normal Incidence
  0.08,                                   !- Front Side Visible Reflectance at Normal Incidence
  0.08,                                   !- Back Side Visible Reflectance at Normal Incidence
  0,                                      !- Infrared Transmittance at Normal Incidence
  0.84,                                   !- Front Side Infrared Hemispherical Emissivity
  0.84,                                   !- Back Side Infrared Hemispherical Emissivity
  1,                                      !- Conductivity {W/m-K}
  1,                                      !- Dirt Correction Factor for Solar and Visible Transmittance
  No;                                     !- Solar Diffusing

OS:Material,
  {b4e01bfc-6295-4973-8ecc-debf6cfe1161}, !- Handle
  Generic LW Concrete,                    !- Name
  MediumRough,                            !- Roughness
  0.1,                                    !- Thickness {m}
  0.53,                                   !- Conductivity {W/m-K}
  1280,                                   !- Density {kg/m3}
  840,                                    !- Specific Heat {J/kg-K}
  0.9,                                    !- Thermal Absorptance
  0.8,                                    !- Solar Absorptance
  0.8;                                    !- Visible Absorptance

OS:Material,
  {fa96016b-12be-4a47-8635-e4ed1593524c}, !- Handle
  Generic 25mm Insulation,                !- Name
  MediumRough,                            !- Roughness
  0.05,                                   !- Thickness {m}
  0.03,                                   !- Conductivity {W/m-K}
  43,                                     !- Density {kg/m3}
  1210,                                   !- Specific Heat {J/kg-K}
  0.9,                                    !- Thermal Absorptance
  0.7,                                    !- Solar Absorptance
  0.7;                                    !- Visible Absorptance

OS:Material,
  {8cfb7ff4-bae2-4c86-9cc4-714d7191db40}, !- Handle
  Generic Brick,                          !- Name
  MediumRough,                            !- Roughness
  0.1,                                    !- Thickness {m}
  0.9,                                    !- Conductivity {W/m-K}
  1920,                                   !- Density {kg/m3}
  790,                                    !- Specific Heat {J/kg-K}
  0.9,                                    !- Thermal Absorptance
  0.65,                                   !- Solar Absorptance
  0.65;                                   !- Visible Absorptance

OS:Material,
  {ec45ab9c-774f-42db-bd50-c649a95819bf}, !- Handle
  Generic Acoustic Tile,                  !- Name
  MediumSmooth,                           !- Roughness
  0.02,                                   !- Thickness {m}
  0.06,                                   !- Conductivity {W/m-K}
  368,                                    !- Density {kg/m3}
  590,                                    !- Specific Heat {J/kg-K}
  0.9,                                    !- Thermal Absorptance
  0.2,                                    !- Solar Absorptance
  0.2;                                    !- Visible Absorptance

OS:Material,
  {f19d3c08-8283-43c7-b5d9-ebe5116eac0f}, !- Handle
  Generic Gypsum Board,                   !- Name
  MediumSmooth,                           !- Roughness
  0.0127,                                 !- Thickness {m}
  0.16,                                   !- Conductivity {W/m-K}
  800,                                    !- Density {kg/m3}
  1090,                                   !- Specific Heat {J/kg-K}
  0.9,                                    !- Thermal Absorptance
  0.5,                                    !- Solar Absorptance
  0.5;                                    !- Visible Absorptance

OS:WindowMaterial:Gas,
  {c0fa5314-ac67-4acd-b04c-9d9af6249c8e}, !- Handle
  Generic Window Air Gap,                 !- Name
  Air,                                    !- Gas Type
  0.0127;                                 !- Thickness {m}

OS:Material,
  {bad76f1e-38e7-4562-baa8-71374202cc7a}, !- Handle
  Generic Painted Metal,                  !- Name
  Smooth,                                 !- Roughness
  0.0015,                                 !- Thickness {m}
  45,                                     !- Conductivity {W/m-K}
  7690,                                   !- Density {kg/m3}
  410,                                    !- Specific Heat {J/kg-K}
  0.9,                                    !- Thermal Absorptance
  0.5,                                    !- Solar Absorptance
  0.5;                                    !- Visible Absorptance

OS:Material,
  {1ec171db-1092-4128-a453-b2e90ae364b8}, !- Handle
  Generic Wall Air Gap,                   !- Name
  Smooth,                                 !- Roughness
  0.1,                                    !- Thickness {m}
  0.667,                                  !- Conductivity {W/m-K}
  1.28,                                   !- Density {kg/m3}
  1000,                                   !- Specific Heat {J/kg-K}
  0.9,                                    !- Thermal Absorptance
  0.7,                                    !- Solar Absorptance
  0.7;                                    !- Visible Absorptance

OS:Material,
  {bcb33264-c7c8-4dbc-932f-c8333df3ed19}, !- Handle
  Generic Roof Membrane,                  !- Name
  MediumRough,                            !- Roughness
  0.01,                                   !- Thickness {m}
  0.16,                                   !- Conductivity {W/m-K}
  1120,                                   !- Density {kg/m3}
  1460,                                   !- Specific Heat {J/kg-K}
  0.9,                                    !- Thermal Absorptance
  0.65,                                   !- Solar Absorptance
  0.65;                                   !- Visible Absorptance

OS:Construction,
  {62f15a21-2940-413a-b59b-df43db1964e4}, !- Handle
  Generic Interior Ceiling,               !- Name
  ,                                       !- Surface Rendering Name
  {b4e01bfc-6295-4973-8ecc-debf6cfe1161}, !- Layer 1
  {9d7654c7-016d-4025-ab6c-2ed436dbb6ad}, !- Layer 2
  {ec45ab9c-774f-42db-bd50-c649a95819bf}; !- Layer 3

OS:Construction,
  {2f04651e-d290-4bdb-a48a-393b556d4495}, !- Handle
  Attic Floor Construction,               !- Name
  ,                                       !- Surface Rendering Name
  {437e0990-1440-416d-88e5-620637337699}, !- Layer 1
  {b890cc88-fcea-43fe-88fd-d8514ff28b13}, !- Layer 2
  {437e0990-1440-416d-88e5-620637337699}; !- Layer 3

OS:Construction,
  {1dba6f87-3846-48ed-a529-ef44f39fcc1a}, !- Handle
  Generic Ground Slab,                    !- Name
  ,                                       !- Surface Rendering Name
  {b890cc88-fcea-43fe-88fd-d8514ff28b13}, !- Layer 1
  {a79e899f-b95d-4c33-8af4-32e20f9c06be}; !- Layer 2

OS:Construction,
  {00e842b7-5c5f-4170-b49c-3a678350c314}, !- Handle
  Generic Shade,                          !- Name
  ,                                       !- Surface Rendering Name
  {c57c1f73-2f94-4079-bb4a-eee6d40e4194}; !- Layer 1

OS:Material,
  {c57c1f73-2f94-4079-bb4a-eee6d40e4194}, !- Handle
  Material 1,                             !- Name
  Smooth,                                 !- Roughness
  0.1,                                    !- Thickness {m}
  0.1,                                    !- Conductivity {W/m-K}
  0.1,                                    !- Density {kg/m3}
  0.1,                                    !- Specific Heat {J/kg-K}
  ,                                       !- Thermal Absorptance
  0.65,                                   !- Solar Absorptance
  0.65;                                   !- Visible Absorptance

OS:Construction,
  {dc908a3e-f30f-4d1d-b411-a32c36eb06fe}, !- Handle
  Generic Roof,                           !- Name
  ,                                       !- Surface Rendering Name
  {bcb33264-c7c8-4dbc-932f-c8333df3ed19}, !- Layer 1
  {b890cc88-fcea-43fe-88fd-d8514ff28b13}, !- Layer 2
  {b4e01bfc-6295-4973-8ecc-debf6cfe1161}, !- Layer 3
  {9d7654c7-016d-4025-ab6c-2ed436dbb6ad}, !- Layer 4
  {ec45ab9c-774f-42db-bd50-c649a95819bf}; !- Layer 5

OS:Construction,
  {9c3d5487-80bf-4b25-bf49-20c19f65b32b}, !- Handle
  Generic Interior Floor,                 !- Name
  ,                                       !- Surface Rendering Name
  {ec45ab9c-774f-42db-bd50-c649a95819bf}, !- Layer 1
  {9d7654c7-016d-4025-ab6c-2ed436dbb6ad}, !- Layer 2
  {b4e01bfc-6295-4973-8ecc-debf6cfe1161}; !- Layer 3

OS:Construction,
  {fbeae300-fbf5-4d9b-888d-182cae00678f}, !- Handle
  Generic Interior Door,                  !- Name
  ,                                       !- Surface Rendering Name
  {437e0990-1440-416d-88e5-620637337699}; !- Layer 1

OS:Construction,
  {d9fa2500-0256-4812-85f2-e4887396c4d0}, !- Handle
  Attic Roof Construction,                !- Name
  ,                                       !- Surface Rendering Name
  {bcb33264-c7c8-4dbc-932f-c8333df3ed19}, !- Layer 1
  {c0ce35ce-4ee1-40ee-bcd9-9ee50811b8e0}, !- Layer 2
  {437e0990-1440-416d-88e5-620637337699}; !- Layer 3

OS:Construction,
  {12722776-8e2f-4190-a903-079c1ed456fe}, !- Handle
  Generic Exterior Wall,                  !- Name
  ,                                       !- Surface Rendering Name
  {8cfb7ff4-bae2-4c86-9cc4-714d7191db40}, !- Layer 1
  {b4e01bfc-6295-4973-8ecc-debf6cfe1161}, !- Layer 2
  {b890cc88-fcea-43fe-88fd-d8514ff28b13}, !- Layer 3
  {1ec171db-1092-4128-a453-b2e90ae364b8}, !- Layer 4
  {f19d3c08-8283-43c7-b5d9-ebe5116eac0f}; !- Layer 5

OS:Construction,
  {1652b1e1-95b3-4e6b-a798-72f4672d7bcd}, !- Handle
  Generic Underground Wall,               !- Name
  ,                                       !- Surface Rendering Name
  {b890cc88-fcea-43fe-88fd-d8514ff28b13}, !- Layer 1
  {a79e899f-b95d-4c33-8af4-32e20f9c06be}, !- Layer 2
  {1ec171db-1092-4128-a453-b2e90ae364b8}, !- Layer 3
  {f19d3c08-8283-43c7-b5d9-ebe5116eac0f}; !- Layer 4

OS:Construction,
  {823ca7a9-62b2-4dce-b51c-2847507e3fc8}, !- Handle
  Generic Interior Wall,                  !- Name
  ,                                       !- Surface Rendering Name
  {f19d3c08-8283-43c7-b5d9-ebe5116eac0f}, !- Layer 1
  {1ec171db-1092-4128-a453-b2e90ae364b8}, !- Layer 2
  {f19d3c08-8283-43c7-b5d9-ebe5116eac0f}; !- Layer 3

OS:Construction,
  {f8dfff6f-1efe-4823-85e8-97edb48d12d8}, !- Handle
  Generic Exposed Floor,                  !- Name
  ,                                       !- Surface Rendering Name
  {bad76f1e-38e7-4562-baa8-71374202cc7a}, !- Layer 1
  {9d7654c7-016d-4025-ab6c-2ed436dbb6ad}, !- Layer 2
  {b890cc88-fcea-43fe-88fd-d8514ff28b13}, !- Layer 3
  {b4e01bfc-6295-4973-8ecc-debf6cfe1161}; !- Layer 4

OS:Construction,
  {71b95440-e0be-4e9f-8423-c07367f4fb03}, !- Handle
  Generic Underground Roof,               !- Name
  ,                                       !- Surface Rendering Name
  {b890cc88-fcea-43fe-88fd-d8514ff28b13}, !- Layer 1
  {a79e899f-b95d-4c33-8af4-32e20f9c06be}, !- Layer 2
  {9d7654c7-016d-4025-ab6c-2ed436dbb6ad}, !- Layer 3
  {ec45ab9c-774f-42db-bd50-c649a95819bf}; !- Layer 4

OS:Construction,
  {cc193d71-c0cd-400e-b337-5a28c6ea0fe1}, !- Handle
  Generic Single Pane,                    !- Name
  ,                                       !- Surface Rendering Name
  {971843f5-d7b7-4ebd-bebb-ef84c387ca9c}; !- Layer 1

OS:Construction,
  {3ef81f1c-5889-4f3e-bf6d-599e77504bfe}, !- Handle
  Generic Exterior Door,                  !- Name
  ,                                       !- Surface Rendering Name
  {bad76f1e-38e7-4562-baa8-71374202cc7a}, !- Layer 1
  {fa96016b-12be-4a47-8635-e4ed1593524c}, !- Layer 2
  {bad76f1e-38e7-4562-baa8-71374202cc7a}; !- Layer 3

OS:Construction,
  {54d22de9-7c07-41f8-bbe3-b49f19b5529e}, !- Handle
  Generic Double Pane,                    !- Name
  ,                                       !- Surface Rendering Name
  {1b601feb-333a-45dc-b62e-0800f6da93bd}, !- Layer 1
  {c0fa5314-ac67-4acd-b04c-9d9af6249c8e}, !- Layer 2
  {971843f5-d7b7-4ebd-bebb-ef84c387ca9c}; !- Layer 3

OS:DefaultConstructionSet,
  {fe6e40a7-4827-4b2c-be2a-71c7bd53e9f9}, !- Handle
  Default Generic Construction Set,       !- Name
  {b6af9ebb-62cc-439f-8599-382c5c73161b}, !- Default Exterior Surface Constructions Name
  {d115d2c8-5fb4-497a-a250-a471d3687658}, !- Default Interior Surface Constructions Name
  {b6af9ebb-62cc-439f-8599-382c5c73161b}, !- Default Ground Contact Surface Constructions Name
  {a359fa0b-5174-48b1-a1d9-61de2dbbb404}, !- Default Exterior SubSurface Constructions Name
  {871f25fd-d8c1-4c2f-a81e-c8db877da8ea}, !- Default Interior SubSurface Constructions Name
  ,                                       !- Interior Partition Construction Name
  {00e842b7-5c5f-4170-b49c-3a678350c314}, !- Space Shading Construction Name
  ,                                       !- Building Shading Construction Name
  ,                                       !- Site Shading Construction Name
  ;                                       !- Adiabatic Surface Construction Name

OS:DefaultSurfaceConstructions,
  {d115d2c8-5fb4-497a-a250-a471d3687658}, !- Handle
  Default Surface Constructions 1,        !- Name
  {9c3d5487-80bf-4b25-bf49-20c19f65b32b}, !- Floor Construction Name
  {823ca7a9-62b2-4dce-b51c-2847507e3fc8}, !- Wall Construction Name
  {62f15a21-2940-413a-b59b-df43db1964e4}; !- Roof Ceiling Construction Name

OS:DefaultSurfaceConstructions,
  {96dad576-4c68-4efc-8fb6-f44e90e3c471}, !- Handle
  Default Surface Constructions 2,        !- Name
  {f8dfff6f-1efe-4823-85e8-97edb48d12d8}, !- Floor Construction Name
  {12722776-8e2f-4190-a903-079c1ed456fe}, !- Wall Construction Name
  {dc908a3e-f30f-4d1d-b411-a32c36eb06fe}; !- Roof Ceiling Construction Name

OS:DefaultSurfaceConstructions,
  {b6af9ebb-62cc-439f-8599-382c5c73161b}, !- Handle
  Default Surface Constructions 3,        !- Name
  {1dba6f87-3846-48ed-a529-ef44f39fcc1a}, !- Floor Construction Name
  {1652b1e1-95b3-4e6b-a798-72f4672d7bcd}, !- Wall Construction Name
  {71b95440-e0be-4e9f-8423-c07367f4fb03}; !- Roof Ceiling Construction Name

OS:DefaultSubSurfaceConstructions,
  {871f25fd-d8c1-4c2f-a81e-c8db877da8ea}, !- Handle
  Default Sub Surface Constructions 1,    !- Name
  ,                                       !- Fixed Window Construction Name
  {cc193d71-c0cd-400e-b337-5a28c6ea0fe1}, !- Operable Window Construction Name
  ,                                       !- Door Construction Name
  {cc193d71-c0cd-400e-b337-5a28c6ea0fe1}, !- Glass Door Construction Name
  {fbeae300-fbf5-4d9b-888d-182cae00678f}, !- Overhead Door Construction Name
  ,                                       !- Skylight Construction Name
  ,                                       !- Tubular Daylight Dome Construction Name
  ;                                       !- Tubular Daylight Diffuser Construction Name

OS:DefaultSubSurfaceConstructions,
  {a359fa0b-5174-48b1-a1d9-61de2dbbb404}, !- Handle
  Default Sub Surface Constructions 2,    !- Name
  {54d22de9-7c07-41f8-bbe3-b49f19b5529e}, !- Fixed Window Construction Name
  ,                                       !- Operable Window Construction Name
  {3ef81f1c-5889-4f3e-bf6d-599e77504bfe}, !- Door Construction Name
  {54d22de9-7c07-41f8-bbe3-b49f19b5529e}, !- Glass Door Construction Name
  ,                                       !- Overhead Door Construction Name
  {54d22de9-7c07-41f8-bbe3-b49f19b5529e}, !- Skylight Construction Name
  ,                                       !- Tubular Daylight Dome Construction Name
  ;                                       !- Tubular Daylight Diffuser Construction Name

OS:DefaultConstructionSet,
  {fc3e8d2a-054a-499e-873a-d733922dfbbf}, !- Handle
  Attic Construction Set,                 !- Name
  ,                                       !- Default Exterior Surface Constructions Name
  {729b1f68-2461-48e6-84fe-ff80e17bb07a}, !- Default Interior Surface Constructions Name
  ,                                       !- Default Ground Contact Surface Constructions Name
  ,                                       !- Default Exterior SubSurface Constructions Name
  ,                                       !- Default Interior SubSurface Constructions Name
  ,                                       !- Interior Partition Construction Name
  ,                                       !- Space Shading Construction Name
  ,                                       !- Building Shading Construction Name
  ,                                       !- Site Shading Construction Name
  ;                                       !- Adiabatic Surface Construction Name

OS:DefaultSurfaceConstructions,
  {729b1f68-2461-48e6-84fe-ff80e17bb07a}, !- Handle
  Default Surface Constructions 4,        !- Name
  {2f04651e-d290-4bdb-a48a-393b556d4495}, !- Floor Construction Name
  ,                                       !- Wall Construction Name
  ;                                       !- Roof Ceiling Construction Name

OS:DefaultSurfaceConstructions,
  {c7e9eddb-1758-40b0-9a4c-9dfe7918d874}, !- Handle
  Default Surface Constructions 5,        !- Name
  ,                                       !- Floor Construction Name
  ,                                       !- Wall Construction Name
  ;                                       !- Roof Ceiling Construction Name

OS:DefaultSurfaceConstructions,
  {1c0ae706-9dd5-46f7-9921-8ea5cf89948d}, !- Handle
  Default Surface Constructions 6,        !- Name
  ,                                       !- Floor Construction Name
  ,                                       !- Wall Construction Name
  ;                                       !- Roof Ceiling Construction Name

OS:DefaultSubSurfaceConstructions,
  {0b64bdde-04ac-44b0-bd22-8bc28ff49628}, !- Handle
  Default Sub Surface Constructions 3,    !- Name
  ,                                       !- Fixed Window Construction Name
  ,                                       !- Operable Window Construction Name
  ,                                       !- Door Construction Name
  ,                                       !- Glass Door Construction Name
  ,                                       !- Overhead Door Construction Name
  ,                                       !- Skylight Construction Name
  ,                                       !- Tubular Daylight Dome Construction Name
  ;                                       !- Tubular Daylight Diffuser Construction Name

OS:DefaultSubSurfaceConstructions,
  {5d02e571-5517-40db-99aa-af3795a93c85}, !- Handle
  Default Sub Surface Constructions 4,    !- Name
  ,                                       !- Fixed Window Construction Name
  ,                                       !- Operable Window Construction Name
  ,                                       !- Door Construction Name
  ,                                       !- Glass Door Construction Name
  ,                                       !- Overhead Door Construction Name
  ,                                       !- Skylight Construction Name
  ,                                       !- Tubular Daylight Dome Construction Name
  ;                                       !- Tubular Daylight Diffuser Construction Name

OS:Building,
  {cdc58531-562f-4e27-bccf-f362fb55e5bd}, !- Handle
  Building 1,                             !- Name
  ,                                       !- Building Sector Type
  ,                                       !- North Axis {deg}
  ,                                       !- Nominal Floor to Floor Height {m}
  ,                                       !- Space Type Name
  {fe6e40a7-4827-4b2c-be2a-71c7bd53e9f9}, !- Default Construction Set Name
  ,                                       !- Default Schedule Set Name
  ,                                       !- Standards Number of Stories
  ,                                       !- Standards Number of Above Ground Stories
  90.1-2010,                              !- Standards Template
  MidriseApartment;                       !- Standards Building Type

OS:Space,
  {317185c1-68e9-4dc0-a949-7e2781fe1238}, !- Handle
  FirstFloor,                             !- Name
  ,                                       !- Space Type Name
  ,                                       !- Default Construction Set Name
  ,                                       !- Default Schedule Set Name
  ,                                       !- Direction of Relative North {deg}
  ,                                       !- X Origin {m}
  ,                                       !- Y Origin {m}
  ,                                       !- Z Origin {m}
  ,                                       !- Building Story Name
  {2f8301ee-f3d1-43f8-aec2-03a71a7a4044}; !- Thermal Zone Name

OS:Surface,
  {9b55ccb9-3ac0-42dc-869b-50087a78d9be}, !- Handle
  FirstFloor_Bottom,                      !- Name
  Floor,                                  !- Surface Type
  ,                                       !- Construction Name
  {317185c1-68e9-4dc0-a949-7e2781fe1238}, !- Space Name
  Ground,                                 !- Outside Boundary Condition
  ,                                       !- Outside Boundary Condition Object
  NoSun,                                  !- Sun Exposure
  NoWind,                                 !- Wind Exposure
  ,                                       !- View Factor to Ground
  ,                                       !- Number of Vertices
  0, 0, 0,                                !- X,Y,Z Vertex 1 {m}
  0, 10, 0,                               !- X,Y,Z Vertex 2 {m}
  10, 10, 0,                              !- X,Y,Z Vertex 3 {m}
  10, 0, 0;                               !- X,Y,Z Vertex 4 {m}

OS:ShadingSurfaceGroup,
  {4c183a2c-111d-49be-a85e-5da124f1f650}, !- Handle
  Shading Surface Group 1,                !- Name
  Building;                               !- Shading Surface Type

OS:Surface,
  {69ad897b-9339-4334-ad06-d518a1685b68}, !- Handle
  FirstFloor_Front,                       !- Name
  Wall,                                   !- Surface Type
  ,                                       !- Construction Name
  {317185c1-68e9-4dc0-a949-7e2781fe1238}, !- Space Name
  Outdoors,                               !- Outside Boundary Condition
  ,                                       !- Outside Boundary Condition Object
  SunExposed,                             !- Sun Exposure
  WindExposed,                            !- Wind Exposure
  Autocalculate,                          !- View Factor to Ground
  ,                                       !- Number of Vertices
  10, 10, 3,                              !- X,Y,Z Vertex 1 {m}
  10, 10, 0,                              !- X,Y,Z Vertex 2 {m}
  0, 10, 0,                               !- X,Y,Z Vertex 3 {m}
  0, 10, 3;                               !- X,Y,Z Vertex 4 {m}

OS:SubSurface,
  {01b60d03-b389-4ea6-b964-01fc6c676f9b}, !- Handle
  FirstFloor_Front_Glz0,                  !- Name
  FixedWindow,                            !- Sub Surface Type
  ,                                       !- Construction Name
  {69ad897b-9339-4334-ad06-d518a1685b68}, !- Surface Name
  ,                                       !- Outside Boundary Condition Object
  ,                                       !- View Factor to Ground
  ,                                       !- Shading Control Name
  ,                                       !- Frame and Divider Name
  ,                                       !- Multiplier
  ,                                       !- Number of Vertices
  7.23606797749979, 10, 2.17082039324994, !- X,Y,Z Vertex 1 {m}
  7.23606797749979, 10, 0.829179606750063, !- X,Y,Z Vertex 2 {m}
  2.76393202250021, 10, 0.829179606750063, !- X,Y,Z Vertex 3 {m}
  2.76393202250021, 10, 2.17082039324994; !- X,Y,Z Vertex 4 {m}

OS:ShadingSurfaceGroup,
  {82c127cc-a541-4a54-b6cb-db0ac1c22b43}, !- Handle
  Shading Surface Group 2,                !- Name
  Building;                               !- Shading Surface Type

OS:ShadingSurfaceGroup,
  {d040f5ab-1cb1-459c-beb3-429e36696781}, !- Handle
  Shading Surface Group 3,                !- Name
  Building;                               !- Shading Surface Type

OS:Surface,
  {bfc280da-0161-4a7d-9eb6-e05624ee4be1}, !- Handle
  FirstFloor_Right,                       !- Name
  Wall,                                   !- Surface Type
  ,                                       !- Construction Name
  {317185c1-68e9-4dc0-a949-7e2781fe1238}, !- Space Name
  Outdoors,                               !- Outside Boundary Condition
  ,                                       !- Outside Boundary Condition Object
  SunExposed,                             !- Sun Exposure
  WindExposed,                            !- Wind Exposure