
OS:Version,
  {aa05d260-9ade-4145-896a-6e0b8d383938}, !- Handle
  2.8.1;                                  !- Version Identifier

OS:Material,
  {04aa3734-b972-474c-be95-740c453372f7}, !- Handle
  Generic Wall Air Gap,                   !- Name
  Smooth,                                 !- Roughness
  0.1,                                    !- Thickness {m}
  0.667,                                  !- Conductivity {W/m-K}
  1.28,                                   !- Density {kg/m3}
  1000,                                   !- Specific Heat {J/kg-K}
  0.9,                                    !- Thermal Absorptance
  0.7,                                    !- Solar Absorptance
  0.7;                                    !- Visible Absorptance

OS:Material,
  {c2b318b6-7b03-47be-b359-f0a54b5dc8d5}, !- Handle
  Generic 25mm Wood,                      !- Name
  MediumSmooth,                           !- Roughness
  0.0254,                                 !- Thickness {m}
  0.15,                                   !- Conductivity {W/m-K}
  608,                                    !- Density {kg/m3}
  1630,                                   !- Specific Heat {J/kg-K}
  0.9,                                    !- Thermal Absorptance
  0.5,                                    !- Solar Absorptance
  0.5;                                    !- Visible Absorptance

OS:Material,
  {ea33a248-8187-45a8-830f-4c4bd5268a2a}, !- Handle
  Generic HW Concrete,                    !- Name
  MediumRough,                            !- Roughness
  0.2,                                    !- Thickness {m}
  1.95,                                   !- Conductivity {W/m-K}
  2240,                                   !- Density {kg/m3}
  900,                                    !- Specific Heat {J/kg-K}
  0.9,                                    !- Thermal Absorptance
  0.8,                                    !- Solar Absorptance
  0.8;                                    !- Visible Absorptance

OS:WindowMaterial:Gas,
  {fd025db6-8ba7-4360-9cea-61486d59c8a6}, !- Handle
  Generic Window Air Gap,                 !- Name
  Air,                                    !- Gas Type
  0.0127;                                 !- Thickness {m}

OS:Material,
  {f38fc472-9ca7-485e-ae5b-7eb39fc03379}, !- Handle
  Generic Brick,                          !- Name
  MediumRough,                            !- Roughness
  0.1,                                    !- Thickness {m}
  0.9,                                    !- Conductivity {W/m-K}
  1920,                                   !- Density {kg/m3}
  790,                                    !- Specific Heat {J/kg-K}
  0.9,                                    !- Thermal Absorptance
  0.65,                                   !- Solar Absorptance
  0.65;                                   !- Visible Absorptance

OS:Material,
  {1fd4c1cb-049a-40a6-a337-fa620c54136d}, !- Handle
  Generic Painted Metal,                  !- Name
  Smooth,                                 !- Roughness
  0.0015,                                 !- Thickness {m}
  45,                                     !- Conductivity {W/m-K}
  7690,                                   !- Density {kg/m3}
  410,                                    !- Specific Heat {J/kg-K}
  0.9,                                    !- Thermal Absorptance
  0.5,                                    !- Solar Absorptance
  0.5;                                    !- Visible Absorptance

OS:Material,
  {32aa6b5a-d9d4-444d-bf51-83224644f0dc}, !- Handle
  Generic Gypsum Board,                   !- Name
  MediumSmooth,                           !- Roughness
  0.0127,                                 !- Thickness {m}
  0.16,                                   !- Conductivity {W/m-K}
  800,                                    !- Density {kg/m3}
  1090,                                   !- Specific Heat {J/kg-K}
  0.9,                                    !- Thermal Absorptance
  0.5,                                    !- Solar Absorptance
  0.5;                                    !- Visible Absorptance

OS:Material,
  {85ba2125-2fd6-4325-ba77-1aa8be644d16}, !- Handle
  Generic Roof Membrane,                  !- Name
  MediumRough,                            !- Roughness
  0.01,                                   !- Thickness {m}
  0.16,                                   !- Conductivity {W/m-K}
  1120,                                   !- Density {kg/m3}
  1460,                                   !- Specific Heat {J/kg-K}
  0.9,                                    !- Thermal Absorptance
  0.65,                                   !- Solar Absorptance
  0.65;                                   !- Visible Absorptance

OS:WindowMaterial:Glazing,
  {24b3a67d-5f91-4a0d-a97e-28ba0f1d7982}, !- Handle
  Generic Clear Glass,                    !- Name
  SpectralAverage,                        !- Optical Data Type
  ,                                       !- Window Glass Spectral Data Set Name
  0.006,                                  !- Thickness {m}
  0.77,                                   !- Solar Transmittance at Normal Incidence
  0.07,                                   !- Front Side Solar Reflectance at Normal Incidence
  0.07,                                   !- Back Side Solar Reflectance at Normal Incidence
  0.88,                                   !- Visible Transmittance at Normal Incidence
  0.08,                                   !- Front Side Visible Reflectance at Normal Incidence
  0.08,                                   !- Back Side Visible Reflectance at Normal Incidence
  0,                                      !- Infrared Transmittance at Normal Incidence
  0.84,                                   !- Front Side Infrared Hemispherical Emissivity
  0.84,                                   !- Back Side Infrared Hemispherical Emissivity
  1,                                      !- Conductivity {W/m-K}
  1,                                      !- Dirt Correction Factor for Solar and Visible Transmittance
  No;                                     !- Solar Diffusing

OS:WindowMaterial:Glazing,
  {6c2e4522-8de8-4531-b797-b5181670f77e}, !- Handle
  Generic Low-e Glass,                    !- Name
  SpectralAverage,                        !- Optical Data Type
  ,                                       !- Window Glass Spectral Data Set Name
  0.006,                                  !- Thickness {m}
  0.45,                                   !- Solar Transmittance at Normal Incidence
  0.36,                                   !- Front Side Solar Reflectance at Normal Incidence
  0.36,                                   !- Back Side Solar Reflectance at Normal Incidence
  0.71,                                   !- Visible Transmittance at Normal Incidence
  0.21,                                   !- Front Side Visible Reflectance at Normal Incidence
  0.21,                                   !- Back Side Visible Reflectance at Normal Incidence
  0,                                      !- Infrared Transmittance at Normal Incidence
  0.84,                                   !- Front Side Infrared Hemispherical Emissivity
  0.047,                                  !- Back Side Infrared Hemispherical Emissivity
  1,                                      !- Conductivity {W/m-K}
  1,                                      !- Dirt Correction Factor for Solar and Visible Transmittance
  No;                                     !- Solar Diffusing

OS:Material,
  {195a2c65-0b89-4d69-aa85-88759cef8b5f}, !- Handle
  Generic 25mm Insulation,                !- Name
  MediumRough,                            !- Roughness
  0.05,                                   !- Thickness {m}
  0.03,                                   !- Conductivity {W/m-K}
  43,                                     !- Density {kg/m3}
  1210,                                   !- Specific Heat {J/kg-K}
  0.9,                                    !- Thermal Absorptance
  0.7,                                    !- Solar Absorptance
  0.7;                                    !- Visible Absorptance

OS:Material,
  {a5777412-87ee-4da7-be8f-ac93b80d364d}, !- Handle
  PolyIso,                                !- Name
  MediumRough,                            !- Roughness
  0.2,                                    !- Thickness {m}
  0.03,                                   !- Conductivity {W/m-K}
  43,                                     !- Density {kg/m3}
  1210,                                   !- Specific Heat {J/kg-K}
  0.9,                                    !- Thermal Absorptance
  0.7,                                    !- Solar Absorptance
  0.7;                                    !- Visible Absorptance

OS:Material,
  {08fd99d8-e3f4-4535-95aa-6a364bcf5cfc}, !- Handle
  Generic Ceiling Air Gap,                !- Name
  Smooth,                                 !- Roughness
  0.1,                                    !- Thickness {m}
  0.556,                                  !- Conductivity {W/m-K}
  1.28,                                   !- Density {kg/m3}
  1000,                                   !- Specific Heat {J/kg-K}
  0.9,                                    !- Thermal Absorptance
  0.7,                                    !- Solar Absorptance
  0.7;                                    !- Visible Absorptance

OS:Material,
  {7102de32-5aa3-4010-b011-56e112335614}, !- Handle
  Generic LW Concrete,                    !- Name
  MediumRough,                            !- Roughness
  0.1,                                    !- Thickness {m}
  0.53,                                   !- Conductivity {W/m-K}
  1280,                                   !- Density {kg/m3}
  840,                                    !- Specific Heat {J/kg-K}
  0.9,                                    !- Thermal Absorptance
  0.8,                                    !- Solar Absorptance
  0.8;                                    !- Visible Absorptance

OS:Material,
  {b8dbc128-7804-4f51-9c3d-4f888415fad5}, !- Handle
  Generic Acoustic Tile,                  !- Name
  MediumSmooth,                           !- Roughness
  0.02,                                   !- Thickness {m}
  0.06,                                   !- Conductivity {W/m-K}
  368,                                    !- Density {kg/m3}
  590,                                    !- Specific Heat {J/kg-K}
  0.9,                                    !- Thermal Absorptance
  0.2,                                    !- Solar Absorptance
  0.2;                                    !- Visible Absorptance

OS:Material,
  {ef3bf005-b49a-45c3-8ecc-8e0aa862222e}, !- Handle
  Generic 50mm Insulation,                !- Name
  MediumRough,                            !- Roughness
  0.05,                                   !- Thickness {m}
  0.03,                                   !- Conductivity {W/m-K}
  43,                                     !- Density {kg/m3}
  1210,                                   !- Specific Heat {J/kg-K}
  0.9,                                    !- Thermal Absorptance
  0.7,                                    !- Solar Absorptance
  0.7;                                    !- Visible Absorptance

OS:Construction,
  {d0359b77-f8c1-4b3d-9b82-3b9cea8ed996}, !- Handle
  Generic Underground Roof,               !- Name
  ,                                       !- Surface Rendering Name
  {ef3bf005-b49a-45c3-8ecc-8e0aa862222e}, !- Layer 1
  {ea33a248-8187-45a8-830f-4c4bd5268a2a}, !- Layer 2
  {08fd99d8-e3f4-4535-95aa-6a364bcf5cfc}, !- Layer 3
  {b8dbc128-7804-4f51-9c3d-4f888415fad5}; !- Layer 4

OS:Construction,
  {117776cd-6560-445f-a85b-6702c6710420}, !- Handle
  Generic Roof,                           !- Name
  ,                                       !- Surface Rendering Name
  {85ba2125-2fd6-4325-ba77-1aa8be644d16}, !- Layer 1
  {ef3bf005-b49a-45c3-8ecc-8e0aa862222e}, !- Layer 2
  {7102de32-5aa3-4010-b011-56e112335614}, !- Layer 3
  {08fd99d8-e3f4-4535-95aa-6a364bcf5cfc}, !- Layer 4
  {b8dbc128-7804-4f51-9c3d-4f888415fad5}; !- Layer 5

OS:Construction,
  {337d1486-e2e1-49b8-9595-d2c457c0b7a2}, !- Handle
  Generic Interior Door,                  !- Name
  ,                                       !- Surface Rendering Name
  {c2b318b6-7b03-47be-b359-f0a54b5dc8d5}; !- Layer 1

OS:Construction,
  {fc21c3cc-94f2-4c2f-bdc8-a3eec120742c}, !- Handle
  Generic Interior Wall,                  !- Name
  ,                                       !- Surface Rendering Name
  {32aa6b5a-d9d4-444d-bf51-83224644f0dc}, !- Layer 1
  {04aa3734-b972-474c-be95-740c453372f7}, !- Layer 2
  {32aa6b5a-d9d4-444d-bf51-83224644f0dc}; !- Layer 3

OS:Construction,
  {433aed7c-8777-4cb9-85e3-249ee3f9be07}, !- Handle
  Generic Single Pane,                    !- Name
  ,                                       !- Surface Rendering Name
  {24b3a67d-5f91-4a0d-a97e-28ba0f1d7982}; !- Layer 1

OS:Construction,
  {ddf66fd5-3705-4990-968d-99a9879f4e72}, !- Handle
  Generic Interior Ceiling,               !- Name
  ,                                       !- Surface Rendering Name
  {7102de32-5aa3-4010-b011-56e112335614}, !- Layer 1
  {08fd99d8-e3f4-4535-95aa-6a364bcf5cfc}, !- Layer 2
  {b8dbc128-7804-4f51-9c3d-4f888415fad5}; !- Layer 3

OS:Construction,
  {912af38c-2150-4ddb-a7db-9feaf6c9280b}, !- Handle
  Generic Exposed Floor,                  !- Name
  ,                                       !- Surface Rendering Name
  {1fd4c1cb-049a-40a6-a337-fa620c54136d}, !- Layer 1
  {08fd99d8-e3f4-4535-95aa-6a364bcf5cfc}, !- Layer 2
  {ef3bf005-b49a-45c3-8ecc-8e0aa862222e}, !- Layer 3
  {7102de32-5aa3-4010-b011-56e112335614}; !- Layer 4

OS:Construction,
  {87c131f9-a10a-4276-8edf-8330c9f13a34}, !- Handle
  Generic Interior Floor,                 !- Name
  ,                                       !- Surface Rendering Name
  {b8dbc128-7804-4f51-9c3d-4f888415fad5}, !- Layer 1
  {08fd99d8-e3f4-4535-95aa-6a364bcf5cfc}, !- Layer 2
  {7102de32-5aa3-4010-b011-56e112335614}; !- Layer 3

OS:Construction,
  {0a184b65-05a0-4d76-8d0c-d5b172f9da21}, !- Handle
  Generic Double Pane,                    !- Name
  ,                                       !- Surface Rendering Name
  {6c2e4522-8de8-4531-b797-b5181670f77e}, !- Layer 1
  {fd025db6-8ba7-4360-9cea-61486d59c8a6}, !- Layer 2
  {24b3a67d-5f91-4a0d-a97e-28ba0f1d7982}; !- Layer 3

OS:Construction,
  {add1243f-ddac-400b-874c-5d4280f37bc1}, !- Handle
  Attic Floor Construction,               !- Name
  ,                                       !- Surface Rendering Name
  {c2b318b6-7b03-47be-b359-f0a54b5dc8d5}, !- Layer 1
  {ef3bf005-b49a-45c3-8ecc-8e0aa862222e}, !- Layer 2
  {c2b318b6-7b03-47be-b359-f0a54b5dc8d5}; !- Layer 3

OS:Construction,
  {7831d1e5-7a7a-4a55-9a71-cb04e8d28cea}, !- Handle
  Attic Roof Construction,                !- Name
  ,                                       !- Surface Rendering Name
  {85ba2125-2fd6-4325-ba77-1aa8be644d16}, !- Layer 1
  {a5777412-87ee-4da7-be8f-ac93b80d364d}, !- Layer 2
  {c2b318b6-7b03-47be-b359-f0a54b5dc8d5}; !- Layer 3

OS:Construction,
  {22f3ec77-097b-4d4a-9750-bbc9a6f99543}, !- Handle
  Generic Exterior Wall,                  !- Name
  ,                                       !- Surface Rendering Name
  {f38fc472-9ca7-485e-ae5b-7eb39fc03379}, !- Layer 1
  {7102de32-5aa3-4010-b011-56e112335614}, !- Layer 2
  {ef3bf005-b49a-45c3-8ecc-8e0aa862222e}, !- Layer 3
  {04aa3734-b972-474c-be95-740c453372f7}, !- Layer 4
  {32aa6b5a-d9d4-444d-bf51-83224644f0dc}; !- Layer 5

OS:Construction,
  {db023d3d-2444-4673-821b-d550e0b25f45}, !- Handle
  Generic Shade,                          !- Name
  ,                                       !- Surface Rendering Name
  {930b0ec4-31e6-4268-98f7-7d9319081ccf}; !- Layer 1

OS:Material,
  {930b0ec4-31e6-4268-98f7-7d9319081ccf}, !- Handle
  Material 1,                             !- Name
  Smooth,                                 !- Roughness
  0.1,                                    !- Thickness {m}
  0.1,                                    !- Conductivity {W/m-K}
  0.1,                                    !- Density {kg/m3}
  100,                                    !- Specific Heat {J/kg-K}
  ,                                       !- Thermal Absorptance
  0.65,                                   !- Solar Absorptance
  0.65;                                   !- Visible Absorptance

OS:Construction,
  {eeffe048-49ab-447f-a3e4-793bdc3abb5d}, !- Handle
  Generic Ground Slab,                    !- Name
  ,                                       !- Surface Rendering Name
  {ef3bf005-b49a-45c3-8ecc-8e0aa862222e}, !- Layer 1
  {ea33a248-8187-45a8-830f-4c4bd5268a2a}; !- Layer 2

OS:Construction,
  {2e48ab12-f705-4916-9c9e-4be951f0e211}, !- Handle
  Generic Exterior Door,                  !- Name
  ,                                       !- Surface Rendering Name
  {1fd4c1cb-049a-40a6-a337-fa620c54136d}, !- Layer 1
  {195a2c65-0b89-4d69-aa85-88759cef8b5f}, !- Layer 2
  {1fd4c1cb-049a-40a6-a337-fa620c54136d}; !- Layer 3

OS:Construction,
  {7056afab-e031-40fb-a58d-73f6e8bae3fd}, !- Handle
  Generic Underground Wall,               !- Name
  ,                                       !- Surface Rendering Name
  {ef3bf005-b49a-45c3-8ecc-8e0aa862222e}, !- Layer 1
  {ea33a248-8187-45a8-830f-4c4bd5268a2a}, !- Layer 2
  {04aa3734-b972-474c-be95-740c453372f7}, !- Layer 3
  {32aa6b5a-d9d4-444d-bf51-83224644f0dc}; !- Layer 4

OS:DefaultConstructionSet,
  {719c7c47-47ac-4b34-a07b-87e642966cbc}, !- Handle
  Default Generic Construction Set,       !- Name
  {b957b916-840f-4b62-8bc4-b629ff869777}, !- Default Exterior Surface Constructions Name
  {f4313748-b600-4994-ba2d-cf7adad8285a}, !- Default Interior Surface Constructions Name
  {b957b916-840f-4b62-8bc4-b629ff869777}, !- Default Ground Contact Surface Constructions Name
  {802582d0-0ed0-4038-8b5c-5cb8c7633fc0}, !- Default Exterior SubSurface Constructions Name
  {2e1dd0bf-d273-4ef1-a155-26bdd856b9de}, !- Default Interior SubSurface Constructions Name
  ,                                       !- Interior Partition Construction Name
  {db023d3d-2444-4673-821b-d550e0b25f45}, !- Space Shading Construction Name
  ,                                       !- Building Shading Construction Name
  ,                                       !- Site Shading Construction Name
  ;                                       !- Adiabatic Surface Construction Name

OS:DefaultSurfaceConstructions,
  {f4313748-b600-4994-ba2d-cf7adad8285a}, !- Handle
  Default Surface Constructions 1,        !- Name
  {87c131f9-a10a-4276-8edf-8330c9f13a34}, !- Floor Construction Name
  {fc21c3cc-94f2-4c2f-bdc8-a3eec120742c}, !- Wall Construction Name
  {ddf66fd5-3705-4990-968d-99a9879f4e72}; !- Roof Ceiling Construction Name

OS:DefaultSurfaceConstructions,
  {1e486c33-5bef-4d07-9d3f-6a2e1eebfc17}, !- Handle
  Default Surface Constructions 2,        !- Name
  {912af38c-2150-4ddb-a7db-9feaf6c9280b}, !- Floor Construction Name
  {22f3ec77-097b-4d4a-9750-bbc9a6f99543}, !- Wall Construction Name
  {117776cd-6560-445f-a85b-6702c6710420}; !- Roof Ceiling Construction Name

OS:DefaultSurfaceConstructions,
  {b957b916-840f-4b62-8bc4-b629ff869777}, !- Handle
  Default Surface Constructions 3,        !- Name
  {eeffe048-49ab-447f-a3e4-793bdc3abb5d}, !- Floor Construction Name
  {7056afab-e031-40fb-a58d-73f6e8bae3fd}, !- Wall Construction Name
  {d0359b77-f8c1-4b3d-9b82-3b9cea8ed996}; !- Roof Ceiling Construction Name

OS:DefaultSubSurfaceConstructions,
  {2e1dd0bf-d273-4ef1-a155-26bdd856b9de}, !- Handle
  Default Sub Surface Constructions 1,    !- Name
  ,                                       !- Fixed Window Construction Name
  {433aed7c-8777-4cb9-85e3-249ee3f9be07}, !- Operable Window Construction Name
  ,                                       !- Door Construction Name
  {433aed7c-8777-4cb9-85e3-249ee3f9be07}, !- Glass Door Construction Name
  {337d1486-e2e1-49b8-9595-d2c457c0b7a2}, !- Overhead Door Construction Name
  ,                                       !- Skylight Construction Name
  ,                                       !- Tubular Daylight Dome Construction Name
  ;                                       !- Tubular Daylight Diffuser Construction Name

OS:DefaultSubSurfaceConstructions,
  {802582d0-0ed0-4038-8b5c-5cb8c7633fc0}, !- Handle
  Default Sub Surface Constructions 2,    !- Name
  {0a184b65-05a0-4d76-8d0c-d5b172f9da21}, !- Fixed Window Construction Name
  ,                                       !- Operable Window Construction Name
  {2e48ab12-f705-4916-9c9e-4be951f0e211}, !- Door Construction Name
  {0a184b65-05a0-4d76-8d0c-d5b172f9da21}, !- Glass Door Construction Name
  ,                                       !- Overhead Door Construction Name
  {0a184b65-05a0-4d76-8d0c-d5b172f9da21}, !- Skylight Construction Name
  ,                                       !- Tubular Daylight Dome Construction Name
  ;                                       !- Tubular Daylight Diffuser Construction Name

OS:DefaultConstructionSet,
  {f116ddc5-2039-4513-8bbd-b6f607d25eda}, !- Handle
  Attic Construction Set,                 !- Name
  ,                                       !- Default Exterior Surface Constructions Name
  {24e77277-efb1-4cb3-bbb8-c93cc94485db}, !- Default Interior Surface Constructions Name
  ,                                       !- Default Ground Contact Surface Constructions Name
  ,                                       !- Default Exterior SubSurface Constructions Name
  ,                                       !- Default Interior SubSurface Constructions Name
  ,                                       !- Interior Partition Construction Name
  ,                                       !- Space Shading Construction Name
  ,                                       !- Building Shading Construction Name
  ,                                       !- Site Shading Construction Name
  ;                                       !- Adiabatic Surface Construction Name

OS:DefaultSurfaceConstructions,
  {24e77277-efb1-4cb3-bbb8-c93cc94485db}, !- Handle
  Default Surface Constructions 4,        !- Name
  {add1243f-ddac-400b-874c-5d4280f37bc1}, !- Floor Construction Name
  ,                                       !- Wall Construction Name
  ;                                       !- Roof Ceiling Construction Name

OS:DefaultSurfaceConstructions,
  {faee6dc3-87b0-45c1-a0de-0e09fffeb328}, !- Handle
  Default Surface Constructions 5,        !- Name
  ,                                       !- Floor Construction Name
  ,                                       !- Wall Construction Name
  ;                                       !- Roof Ceiling Construction Name

OS:DefaultSurfaceConstructions,
  {b2598abd-90b5-41ae-8987-2c3c75cc3297}, !- Handle
  Default Surface Constructions 6,        !- Name
  ,                                       !- Floor Construction Name
  ,                                       !- Wall Construction Name
  ;                                       !- Roof Ceiling Construction Name

OS:DefaultSubSurfaceConstructions,
  {d1ef1807-adbd-4097-94f6-65b4739e7a85}, !- Handle
  Default Sub Surface Constructions 3,    !- Name
  ,                                       !- Fixed Window Construction Name
  ,                                       !- Operable Window Construction Name
  ,                                       !- Door Construction Name
  ,                                       !- Glass Door Construction Name
  ,                                       !- Overhead Door Construction Name
  ,                                       !- Skylight Construction Name
  ,                                       !- Tubular Daylight Dome Construction Name
  ;                                       !- Tubular Daylight Diffuser Construction Name

OS:DefaultSubSurfaceConstructions,
  {7c41073a-63b4-4ccf-a165-49da235fd677}, !- Handle
  Default Sub Surface Constructions 4,    !- Name
  ,                                       !- Fixed Window Construction Name
  ,                                       !- Operable Window Construction Name
  ,                                       !- Door Construction Name
  ,                                       !- Glass Door Construction Name
  ,                                       !- Overhead Door Construction Name
  ,                                       !- Skylight Construction Name
  ,                                       !- Tubular Daylight Dome Construction Name
  ;                                       !- Tubular Daylight Diffuser Construction Name

OS:Building,
  {2cfc7d6d-0db2-49f3-90b0-d94864a582d0}, !- Handle
  Building 1,                             !- Name
  ,                                       !- Building Sector Type
  ,                                       !- North Axis {deg}
  ,                                       !- Nominal Floor to Floor Height {m}
  ,                                       !- Space Type Name
  {719c7c47-47ac-4b34-a07b-87e642966cbc}, !- Default Construction Set Name
  ;                                       !- Default Schedule Set Name

OS:ScheduleTypeLimits,
  {8cf929c0-9e1a-44a4-9b99-99eacdca2294}, !- Handle
  Temperature,                            !- Name
  -273.15,                                !- Lower Limit Value
  ,                                       !- Upper Limit Value
  Continuous,                             !- Numeric Type
  Temperature;                            !- Unit Type

OS:ScheduleTypeLimits,
  {26e995e6-cdfd-4258-8b9a-9ee008928bed}, !- Handle
  Fractional,                             !- Name
  0,                                      !- Lower Limit Value
  1,                                      !- Upper Limit Value
  Continuous,                             !- Numeric Type
  Dimensionless;                          !- Unit Type

OS:ScheduleTypeLimits,
  {8bd736e3-a075-4a66-a702-0e209b76a6b3}, !- Handle
  Activity Level,                         !- Name
  0,                                      !- Lower Limit Value
  ,                                       !- Upper Limit Value
  Continuous,                             !- Numeric Type
  ActivityLevel;                          !- Unit Type

OS:Schedule:Ruleset,
  {5e268b7d-0ea3-48fd-8c0d-5ce6f3a73e94}, !- Handle
  Generic Office Heating,                 !- Name
  {8cf929c0-9e1a-44a4-9b99-99eacdca2294}, !- Schedule Type Limits Name
  {551e19aa-38c4-4b17-9085-f0b8c888ef62}, !- Default Day Schedule Name
  {3fee1b37-5148-4e22-b86c-307222a622bc}, !- Summer Design Day Schedule Name
  {4edba430-c20b-4573-ae84-6cc3fbabcf9d}; !- Winter Design Day Schedule Name

OS:Schedule:Day,
  {551e19aa-38c4-4b17-9085-f0b8c888ef62}, !- Handle
  Schedule Day 1,                         !- Name
  {8cf929c0-9e1a-44a4-9b99-99eacdca2294}, !- Schedule Type Limits Name
  ,                                       !- Interpolate to Timestep
  24,                                     !- Hour 1
  0,                                      !- Minute 1
  0;                                      !- Value Until Time 1

OS:Schedule:Day,
  {087c84f3-8e3c-4e3e-9d9c-6f1d4fc17277}, !- Handle
  OfficeMedium HTGSETP_SCH_YES_OPTIMUM_Default, !- Name
  ,                                       !- Schedule Type Limits Name
  ,                                       !- Interpolate to Timestep
  24,                                     !- Hour 1
  0,                                      !- Minute 1
  0;                                      !- Value Until Time 1

OS:Schedule:Day,
  {b0b792c1-5e21-41c5-a4b9-f2cd3df19c01}, !- Handle
  OfficeMedium HTGSETP_SCH_YES_OPTIMUM_Default_SmrDsn, !- Name
  ,                                       !- Schedule Type Limits Name
  ,                                       !- Interpolate to Timestep
  24,                                     !- Hour 1
  0,                                      !- Minute 1
  0;                                      !- Value Until Time 1

OS:Schedule:Day,
  {f11fe663-63dc-45c3-9152-a70b9355a059}, !- Handle
  OfficeMedium HTGSETP_SCH_YES_OPTIMUM_WntrDsn, !- Name
  ,                                       !- Schedule Type Limits Name
  ,                                       !- Interpolate to Timestep
  5,                                      !- Hour 1
  0,                                      !- Minute 1
  17.6,                                   !- Value Until Time 1
  6,                                      !- Hour 2
  0,                                      !- Minute 2
  19.6,                                   !- Value Until Time 2
  7,                                      !- Hour 3
  0,                                      !- Minute 3
  21,                                     !- Value Until Time 3
  22,                                     !- Hour 4
  0,                                      !- Minute 4
  15.6,                                   !- Value Until Time 4
  24,                                     !- Hour 5
  0,                                      !- Minute 5
  0;                                      !- Value Until Time 5

OS:Schedule:Day,
  {967e8abc-ef69-4d3c-b09d-0db24320667c}, !- Handle
  OfficeMedium HTGSETP_SCH_YES_OPTIMUM_Wkdy, !- Name
  ,                                       !- Schedule Type Limits Name
  ,                                       !- Interpolate to Timestep
  5,                                      !- Hour 1
  0,                                      !- Minute 1
  17.8,                                   !- Value Until Time 1
  6,                                      !- Hour 2
  0,                                      !- Minute 2
  20,                                     !- Value Until Time 2
  7,                                      !- Hour 3
  0,                                      !- Minute 3
  21,                                     !- Value Until Time 3
  22,                                     !- Hour 4
  0,                                      !- Minute 4
  15.6,                                   !- Value Until Time 4
  24,                                     !- Hour 5
  0,                                      !- Minute 5