
OS:Version,
  {3da4b99a-8a19-4945-9996-9c8139f13eb5}, !- Handle
  2.9.0;                                  !- Version Identifier

OS:Material,
  {e92d0b4e-7255-44a9-a52f-c67dc7fc1f50}, !- Handle
  Generic 50mm Insulation,                !- Name
  MediumRough,                            !- Roughness
  0.05,                                   !- Thickness {m}
  0.03,                                   !- Conductivity {W/m-K}
  43,                                     !- Density {kg/m3}
  1210,                                   !- Specific Heat {J/kg-K}
  0.9,                                    !- Thermal Absorptance
  0.7,                                    !- Solar Absorptance
  0.7;                                    !- Visible Absorptance

OS:Material,
  {6143df19-02be-4782-ab81-a1925605c066}, !- Handle
  Generic HW Concrete,                    !- Name
  MediumRough,                            !- Roughness
  0.2,                                    !- Thickness {m}
  1.95,                                   !- Conductivity {W/m-K}
  2240,                                   !- Density {kg/m3}
  900,                                    !- Specific Heat {J/kg-K}
  0.9,                                    !- Thermal Absorptance
  0.8,                                    !- Solar Absorptance
  0.8;                                    !- Visible Absorptance

OS:Material,
  {cd7b537a-89b9-4e13-a235-99403445a14e}, !- Handle
  Generic Ceiling Air Gap,                !- Name
  Smooth,                                 !- Roughness
  0.1,                                    !- Thickness {m}
  0.556,                                  !- Conductivity {W/m-K}
  1.28,                                   !- Density {kg/m3}
  1000,                                   !- Specific Heat {J/kg-K}
  0.9,                                    !- Thermal Absorptance
  0.7,                                    !- Solar Absorptance
  0.7;                                    !- Visible Absorptance

OS:Material,
  {5c05ec71-1b11-4b6c-bb9d-b0c728567cbb}, !- Handle
  Generic Painted Metal,                  !- Name
  Smooth,                                 !- Roughness
  0.0015,                                 !- Thickness {m}
  45,                                     !- Conductivity {W/m-K}
  7690,                                   !- Density {kg/m3}
  410,                                    !- Specific Heat {J/kg-K}
  0.9,                                    !- Thermal Absorptance
  0.5,                                    !- Solar Absorptance
  0.5;                                    !- Visible Absorptance

OS:Material,
  {2c99dfcb-6d12-45cc-8f6e-cfc24ddb6beb}, !- Handle
  Generic 25mm Wood,                      !- Name
  MediumSmooth,                           !- Roughness
  0.0254,                                 !- Thickness {m}
  0.15,                                   !- Conductivity {W/m-K}
  608,                                    !- Density {kg/m3}
  1630,                                   !- Specific Heat {J/kg-K}
  0.9,                                    !- Thermal Absorptance
  0.5,                                    !- Solar Absorptance
  0.5;                                    !- Visible Absorptance

OS:Material,
  {41418c7a-d5bc-4581-9c1d-f51d19fb0e1d}, !- Handle
  Generic Gypsum Board,                   !- Name
  MediumSmooth,                           !- Roughness
  0.0127,                                 !- Thickness {m}
  0.16,                                   !- Conductivity {W/m-K}
  800,                                    !- Density {kg/m3}
  1090,                                   !- Specific Heat {J/kg-K}
  0.9,                                    !- Thermal Absorptance
  0.5,                                    !- Solar Absorptance
  0.5;                                    !- Visible Absorptance

OS:Material,
  {2654d7b0-e75f-48c6-b9ea-296809c481e7}, !- Handle
  Generic Roof Membrane,                  !- Name
  MediumRough,                            !- Roughness
  0.01,                                   !- Thickness {m}
  0.16,                                   !- Conductivity {W/m-K}
  1120,                                   !- Density {kg/m3}
  1460,                                   !- Specific Heat {J/kg-K}
  0.9,                                    !- Thermal Absorptance
  0.65,                                   !- Solar Absorptance
  0.65;                                   !- Visible Absorptance

OS:WindowMaterial:Glazing,
  {0c5792d5-cd73-4802-8c41-fca243313fd3}, !- Handle
  Generic Low-e Glass,                    !- Name
  SpectralAverage,                        !- Optical Data Type
  ,                                       !- Window Glass Spectral Data Set Name
  0.006,                                  !- Thickness {m}
  0.45,                                   !- Solar Transmittance at Normal Incidence
  0.36,                                   !- Front Side Solar Reflectance at Normal Incidence
  0.36,                                   !- Back Side Solar Reflectance at Normal Incidence
  0.71,                                   !- Visible Transmittance at Normal Incidence
  0.21,                                   !- Front Side Visible Reflectance at Normal Incidence
  0.21,                                   !- Back Side Visible Reflectance at Normal Incidence
  0,                                      !- Infrared Transmittance at Normal Incidence
  0.84,                                   !- Front Side Infrared Hemispherical Emissivity
  0.047,                                  !- Back Side Infrared Hemispherical Emissivity
  1,                                      !- Conductivity {W/m-K}
  1,                                      !- Dirt Correction Factor for Solar and Visible Transmittance
  No;                                     !- Solar Diffusing

OS:Material,
  {1a191527-3ce2-4f0c-b450-641b7d9d0713}, !- Handle
  Generic Brick,                          !- Name
  MediumRough,                            !- Roughness
  0.1,                                    !- Thickness {m}
  0.9,                                    !- Conductivity {W/m-K}
  1920,                                   !- Density {kg/m3}
  790,                                    !- Specific Heat {J/kg-K}
  0.9,                                    !- Thermal Absorptance
  0.65,                                   !- Solar Absorptance
  0.65;                                   !- Visible Absorptance

OS:WindowMaterial:Gas,
  {3cd0b4c2-edcb-43e8-8072-0d44ff9dd42c}, !- Handle
  Generic Window Air Gap,                 !- Name
  Air,                                    !- Gas Type
  0.0127;                                 !- Thickness {m}

OS:Material,
  {c838459c-7a31-42ba-95cb-1fda19c43a18}, !- Handle
  Generic Wall Air Gap,                   !- Name
  Smooth,                                 !- Roughness
  0.1,                                    !- Thickness {m}
  0.667,                                  !- Conductivity {W/m-K}
  1.28,                                   !- Density {kg/m3}
  1000,                                   !- Specific Heat {J/kg-K}
  0.9,                                    !- Thermal Absorptance
  0.7,                                    !- Solar Absorptance
  0.7;                                    !- Visible Absorptance

OS:Material,
  {e0f35299-c07d-45d0-a0fa-7cdfac34543d}, !- Handle
  Generic LW Concrete,                    !- Name
  MediumRough,                            !- Roughness
  0.1,                                    !- Thickness {m}
  0.53,                                   !- Conductivity {W/m-K}
  1280,                                   !- Density {kg/m3}
  840,                                    !- Specific Heat {J/kg-K}
  0.9,                                    !- Thermal Absorptance
  0.8,                                    !- Solar Absorptance
  0.8;                                    !- Visible Absorptance

OS:Material,
  {2d72f358-7322-4585-b6c5-e69bd64c23cb}, !- Handle
  Generic Acoustic Tile,                  !- Name
  MediumSmooth,                           !- Roughness
  0.02,                                   !- Thickness {m}
  0.06,                                   !- Conductivity {W/m-K}
  368,                                    !- Density {kg/m3}
  590,                                    !- Specific Heat {J/kg-K}
  0.9,                                    !- Thermal Absorptance
  0.2,                                    !- Solar Absorptance
  0.2;                                    !- Visible Absorptance

OS:Material,
  {74a11bc0-8b0a-45f5-8ccf-b15d68c8c6ee}, !- Handle
  Generic 25mm Insulation,                !- Name
  MediumRough,                            !- Roughness
  0.05,                                   !- Thickness {m}
  0.03,                                   !- Conductivity {W/m-K}
  43,                                     !- Density {kg/m3}
  1210,                                   !- Specific Heat {J/kg-K}
  0.9,                                    !- Thermal Absorptance
  0.7,                                    !- Solar Absorptance
  0.7;                                    !- Visible Absorptance

OS:WindowMaterial:Glazing,
  {d324a650-9547-40a2-b91a-a59066005ae9}, !- Handle
  Generic Clear Glass,                    !- Name
  SpectralAverage,                        !- Optical Data Type
  ,                                       !- Window Glass Spectral Data Set Name
  0.006,                                  !- Thickness {m}
  0.77,                                   !- Solar Transmittance at Normal Incidence
  0.07,                                   !- Front Side Solar Reflectance at Normal Incidence
  0.07,                                   !- Back Side Solar Reflectance at Normal Incidence
  0.88,                                   !- Visible Transmittance at Normal Incidence
  0.08,                                   !- Front Side Visible Reflectance at Normal Incidence
  0.08,                                   !- Back Side Visible Reflectance at Normal Incidence
  0,                                      !- Infrared Transmittance at Normal Incidence
  0.84,                                   !- Front Side Infrared Hemispherical Emissivity
  0.84,                                   !- Back Side Infrared Hemispherical Emissivity
  1,                                      !- Conductivity {W/m-K}
  1,                                      !- Dirt Correction Factor for Solar and Visible Transmittance
  No;                                     !- Solar Diffusing

OS:Construction,
  {02feff0e-f8ae-4ff5-a80b-7289e5e4ae73}, !- Handle
  Generic Interior Ceiling,               !- Name
  ,                                       !- Surface Rendering Name
  {e0f35299-c07d-45d0-a0fa-7cdfac34543d}, !- Layer 1
  {cd7b537a-89b9-4e13-a235-99403445a14e}, !- Layer 2
  {2d72f358-7322-4585-b6c5-e69bd64c23cb}; !- Layer 3

OS:Construction,
  {8e8c1f1c-8fcc-4c41-a26b-86f6ce1e150a}, !- Handle
  Outdoor Light Shelf,                    !- Name
  ,                                       !- Surface Rendering Name
  {0f75f6bc-fb2d-4a67-932d-a4a723df3fe7}; !- Layer 1

OS:Material,
  {0f75f6bc-fb2d-4a67-932d-a4a723df3fe7}, !- Handle
  Material 1,                             !- Name
  Smooth,                                 !- Roughness
  0.1,                                    !- Thickness {m}
  0.1,                                    !- Conductivity {W/m-K}
  0.1,                                    !- Density {kg/m3}
  0.1,                                    !- Specific Heat {J/kg-K}
  ,                                       !- Thermal Absorptance
  0.5,                                    !- Solar Absorptance
  0.5;                                    !- Visible Absorptance

OS:Construction,
  {dda9c55c-34c7-47da-9524-36ccb6ad6d05}, !- Handle
  Generic Exposed Floor,                  !- Name
  ,                                       !- Surface Rendering Name
  {5c05ec71-1b11-4b6c-bb9d-b0c728567cbb}, !- Layer 1
  {cd7b537a-89b9-4e13-a235-99403445a14e}, !- Layer 2
  {e92d0b4e-7255-44a9-a52f-c67dc7fc1f50}, !- Layer 3
  {e0f35299-c07d-45d0-a0fa-7cdfac34543d}; !- Layer 4

OS:Construction,
  {7069ee82-f8cc-45de-8224-e9630dc09be6}, !- Handle
  Generic Exterior Door,                  !- Name
  ,                                       !- Surface Rendering Name
  {5c05ec71-1b11-4b6c-bb9d-b0c728567cbb}, !- Layer 1
  {74a11bc0-8b0a-45f5-8ccf-b15d68c8c6ee}, !- Layer 2
  {5c05ec71-1b11-4b6c-bb9d-b0c728567cbb}; !- Layer 3

OS:Construction,
  {8dab707a-1c0f-45a7-812c-34775c2dc064}, !- Handle
  Generic Interior Door,                  !- Name
  ,                                       !- Surface Rendering Name
  {2c99dfcb-6d12-45cc-8f6e-cfc24ddb6beb}; !- Layer 1

OS:Construction,
  {a43d583f-fef6-445b-875c-e0d13d78c874}, !- Handle
  Generic Exterior Wall,                  !- Name
  ,                                       !- Surface Rendering Name
  {1a191527-3ce2-4f0c-b450-641b7d9d0713}, !- Layer 1
  {e0f35299-c07d-45d0-a0fa-7cdfac34543d}, !- Layer 2
  {e92d0b4e-7255-44a9-a52f-c67dc7fc1f50}, !- Layer 3
  {c838459c-7a31-42ba-95cb-1fda19c43a18}, !- Layer 4
  {41418c7a-d5bc-4581-9c1d-f51d19fb0e1d}; !- Layer 5

OS:Construction,
  {11e6d71c-4161-4ba6-8842-8fad7014862c}, !- Handle
  Generic Interior Wall,                  !- Name
  ,                                       !- Surface Rendering Name
  {41418c7a-d5bc-4581-9c1d-f51d19fb0e1d}, !- Layer 1
  {c838459c-7a31-42ba-95cb-1fda19c43a18}, !- Layer 2
  {41418c7a-d5bc-4581-9c1d-f51d19fb0e1d}; !- Layer 3

OS:Construction,
  {d5e528f2-6aaa-4bec-aaef-09253346823b}, !- Handle
  Generic Interior Floor,                 !- Name
  ,                                       !- Surface Rendering Name
  {2d72f358-7322-4585-b6c5-e69bd64c23cb}, !- Layer 1
  {cd7b537a-89b9-4e13-a235-99403445a14e}, !- Layer 2
  {e0f35299-c07d-45d0-a0fa-7cdfac34543d}; !- Layer 3

OS:Construction,
  {81487938-396a-46ff-9d57-f27a91338d3c}, !- Handle
  Generic Roof,                           !- Name
  ,                                       !- Surface Rendering Name
  {2654d7b0-e75f-48c6-b9ea-296809c481e7}, !- Layer 1
  {e92d0b4e-7255-44a9-a52f-c67dc7fc1f50}, !- Layer 2
  {e0f35299-c07d-45d0-a0fa-7cdfac34543d}, !- Layer 3
  {cd7b537a-89b9-4e13-a235-99403445a14e}, !- Layer 4
  {2d72f358-7322-4585-b6c5-e69bd64c23cb}; !- Layer 5

OS:Construction,
  {497f5530-6ff0-42f1-92fb-79ae64a16454}, !- Handle
  Generic Single Pane,                    !- Name
  ,                                       !- Surface Rendering Name
  {d324a650-9547-40a2-b91a-a59066005ae9}; !- Layer 1

OS:Construction,
  {29083ab7-1cea-4ad6-a939-338184c4f8f7}, !- Handle
  Generic Underground Wall,               !- Name
  ,                                       !- Surface Rendering Name
  {e92d0b4e-7255-44a9-a52f-c67dc7fc1f50}, !- Layer 1
  {6143df19-02be-4782-ab81-a1925605c066}, !- Layer 2
  {c838459c-7a31-42ba-95cb-1fda19c43a18}, !- Layer 3
  {41418c7a-d5bc-4581-9c1d-f51d19fb0e1d}; !- Layer 4

OS:Construction,
  {80aa44fd-17f1-4594-996c-ee0335906718}, !- Handle
  Generic Underground Roof,               !- Name
  ,                                       !- Surface Rendering Name
  {e92d0b4e-7255-44a9-a52f-c67dc7fc1f50}, !- Layer 1
  {6143df19-02be-4782-ab81-a1925605c066}, !- Layer 2
  {cd7b537a-89b9-4e13-a235-99403445a14e}, !- Layer 3
  {2d72f358-7322-4585-b6c5-e69bd64c23cb}; !- Layer 4

OS:Construction,
  {b58aafbc-03e2-477d-b9ee-1fbc790352d5}, !- Handle
  Generic Double Pane,                    !- Name
  ,                                       !- Surface Rendering Name
  {0c5792d5-cd73-4802-8c41-fca243313fd3}, !- Layer 1
  {3cd0b4c2-edcb-43e8-8072-0d44ff9dd42c}, !- Layer 2
  {d324a650-9547-40a2-b91a-a59066005ae9}; !- Layer 3

OS:Construction,
  {291809fc-9a32-4491-8431-a0827771dcf4}, !- Handle
  Generic Ground Slab,                    !- Name
  ,                                       !- Surface Rendering Name
  {e92d0b4e-7255-44a9-a52f-c67dc7fc1f50}, !- Layer 1
  {6143df19-02be-4782-ab81-a1925605c066}; !- Layer 2

OS:Construction,
  {9a3ccbc6-e613-4b16-9968-a012d68bdcbc}, !- Handle
  Indoor Light Shelf,                     !- Name
  ,                                       !- Surface Rendering Name
  {2e580fb4-de84-4aa4-ba27-11cbab116834}; !- Layer 1

OS:Material,
  {2e580fb4-de84-4aa4-ba27-11cbab116834}, !- Handle
  Material 2,                             !- Name
  Smooth,                                 !- Roughness
  0.1,                                    !- Thickness {m}
  0.1,                                    !- Conductivity {W/m-K}
  0.1,                                    !- Density {kg/m3}
  0.1,                                    !- Specific Heat {J/kg-K}
  ,                                       !- Thermal Absorptance
  0.3,                                    !- Solar Absorptance
  0.3;                                    !- Visible Absorptance

OS:Construction,
  {1e33b18d-27ad-4340-9118-c9d37c9e00cc}, !- Handle
  Generic Shade,                          !- Name
  ,                                       !- Surface Rendering Name
  {3495226e-c6f5-4a95-a6cb-3deeb18cba9d}; !- Layer 1

OS:Material,
  {3495226e-c6f5-4a95-a6cb-3deeb18cba9d}, !- Handle
  Material 3,                             !- Name
  Smooth,                                 !- Roughness
  0.1,                                    !- Thickness {m}
  0.1,                                    !- Conductivity {W/m-K}
  0.1,                                    !- Density {kg/m3}
  0.1,                                    !- Specific Heat {J/kg-K}
  ,                                       !- Thermal Absorptance
  0.65,                                   !- Solar Absorptance
  0.65;                                   !- Visible Absorptance

OS:DefaultConstructionSet,
  {35aaca82-8e5d-4b8b-8c41-69868a5d3169}, !- Handle
  Default Generic Construction Set,       !- Name
  {dc131628-575f-4011-b8f3-8cf4d7d91133}, !- Default Exterior Surface Constructions Name
  {16c5ac43-0521-4279-9893-07c3c4e4ce42}, !- Default Interior Surface Constructions Name
  {dc131628-575f-4011-b8f3-8cf4d7d91133}, !- Default Ground Contact Surface Constructions Name
  {19ed9082-e15a-464d-a490-98a687c9c926}, !- Default Exterior SubSurface Constructions Name
  {ea12a32e-301c-44ca-8ee5-8ae59f050df0}, !- Default Interior SubSurface Constructions Name
  ,                                       !- Interior Partition Construction Name
  {1e33b18d-27ad-4340-9118-c9d37c9e00cc}, !- Space Shading Construction Name
  ,                                       !- Building Shading Construction Name
  ,                                       !- Site Shading Construction Name
  ;                                       !- Adiabatic Surface Construction Name

OS:DefaultSurfaceConstructions,
  {16c5ac43-0521-4279-9893-07c3c4e4ce42}, !- Handle
  Default Surface Constructions 1,        !- Name
  {d5e528f2-6aaa-4bec-aaef-09253346823b}, !- Floor Construction Name
  {11e6d71c-4161-4ba6-8842-8fad7014862c}, !- Wall Construction Name
  {02feff0e-f8ae-4ff5-a80b-7289e5e4ae73}; !- Roof Ceiling Construction Name

OS:DefaultSurfaceConstructions,
  {bb0c9a0a-5fe4-443d-9248-a7c496fdee95}, !- Handle
  Default Surface Constructions 2,        !- Name
  {dda9c55c-34c7-47da-9524-36ccb6ad6d05}, !- Floor Construction Name
  {a43d583f-fef6-445b-875c-e0d13d78c874}, !- Wall Construction Name
  {81487938-396a-46ff-9d57-f27a91338d3c}; !- Roof Ceiling Construction Name

OS:DefaultSurfaceConstructions,
  {dc131628-575f-4011-b8f3-8cf4d7d91133}, !- Handle
  Default Surface Constructions 3,        !- Name
  {291809fc-9a32-4491-8431-a0827771dcf4}, !- Floor Construction Name
  {29083ab7-1cea-4ad6-a939-338184c4f8f7}, !- Wall Construction Name
  {80aa44fd-17f1-4594-996c-ee0335906718}; !- Roof Ceiling Construction Name

OS:DefaultSubSurfaceConstructions,
  {ea12a32e-301c-44ca-8ee5-8ae59f050df0}, !- Handle
  Default Sub Surface Constructions 1,    !- Name
  ,                                       !- Fixed Window Construction Name
  {497f5530-6ff0-42f1-92fb-79ae64a16454}, !- Operable Window Construction Name
  ,                                       !- Door Construction Name
  {497f5530-6ff0-42f1-92fb-79ae64a16454}, !- Glass Door Construction Name
  {8dab707a-1c0f-45a7-812c-34775c2dc064}, !- Overhead Door Construction Name
  ,                                       !- Skylight Construction Name
  ,                                       !- Tubular Daylight Dome Construction Name
  ;                                       !- Tubular Daylight Diffuser Construction Name

OS:DefaultSubSurfaceConstructions,
  {19ed9082-e15a-464d-a490-98a687c9c926}, !- Handle
  Default Sub Surface Constructions 2,    !- Name
  {b58aafbc-03e2-477d-b9ee-1fbc790352d5}, !- Fixed Window Construction Name
  ,                                       !- Operable Window Construction Name
  {7069ee82-f8cc-45de-8224-e9630dc09be6}, !- Door Construction Name
  {b58aafbc-03e2-477d-b9ee-1fbc790352d5}, !- Glass Door Construction Name
  ,                                       !- Overhead Door Construction Name
  {b58aafbc-03e2-477d-b9ee-1fbc790352d5}, !- Skylight Construction Name
  ,                                       !- Tubular Daylight Dome Construction Name
  ;                                       !- Tubular Daylight Diffuser Construction Name

OS:Building,
  {1411cf4c-3f73-4da0-b741-e88638540531}, !- Handle
  Building 1,                             !- Name
  ,                                       !- Building Sector Type
  ,                                       !- North Axis {deg}
  ,                                       !- Nominal Floor to Floor Height {m}
  ,                                       !- Space Type Name
  {35aaca82-8e5d-4b8b-8c41-69868a5d3169}, !- Default Construction Set Name
  ,                                       !- Default Schedule Set Name
  ,                                       !- Standards Number of Stories
  ,                                       !- Standards Number of Above Ground Stories
  90.1-2010,                              !- Standards Template
  MidriseApartment;                       !- Standards Building Type

OS:ScheduleTypeLimits,
  {09fcaa39-fdb6-487d-94e8-e5fd1cb09a41}, !- Handle
  Activity Level,                         !- Name
  0,                                      !- Lower Limit Value
  ,                                       !- Upper Limit Value
  Continuous,                             !- Numeric Type
  ActivityLevel;                          !- Unit Type

OS:ScheduleTypeLimits,
  {a3858e9d-60c8-4c1c-aac7-f4a9e1efd919}, !- Handle
  Fractional,                             !- Name
  0,                                      !- Lower Limit Value
  1,                                      !- Upper Limit Value
  Continuous,                             !- Numeric Type
  Dimensionless;                          !- Unit Type

OS:ScheduleTypeLimits,
  {9b8ada5e-e270-45a4-9fed-465e1d7e2511}, !- Handle
  Temperature,                            !- Name
  -273.15,                                !- Lower Limit Value
  ,                                       !- Upper Limit Value
  Continuous,                             !- Numeric Type
  Temperature;                            !- Unit Type

OS:Schedule:Ruleset,
  {eb902f4c-d45d-4873-8ed9-ea802038c2d6}, !- Handle
  Generic Office Infiltration,            !- Name
  {a3858e9d-60c8-4c1c-aac7-f4a9e1efd919}, !- Schedule Type Limits Name
  {4d28e84a-48ed-47e1-9f98-befcca0b0689}, !- Default Day Schedule Name
  {ca6a284f-0e58-404b-abd0-cca61dc0513f}, !- Summer Design Day Schedule Name
  {24d0d0b6-6a30-4b0f-8ea3-a72fb0859bfe}; !- Winter Design Day Schedule Name

OS:Schedule:Day,
  {4d28e84a-48ed-47e1-9f98-befcca0b0689}, !- Handle
  Schedule Day 1,                         !- Name
  {a3858e9d-60c8-4c1c-aac7-f4a9e1efd919}, !- Schedule Type Limits Name
  ,                                       !- Interpolate to Timestep
  24,                                     !- Hour 1
  0,                                      !- Minute 1
  0;                                      !- Value Until Time 1

OS:Schedule:Day,
  {5cd56055-4cd2-403c-9c9f-be1a7b135f61}, !- Handle
  OfficeMedium INFIL_SCH_PNNL_Wkdy_SmrDsn, !- Name
  ,                                       !- Schedule Type Limits Name
  ,                                       !- Interpolate to Timestep
  6,                                      !- Hour 1
  6,                                      !- Minute 1
  0.25,                                   !- Value Until Time 1
  22,                                     !- Hour 2
  22,                                     !- Minute 2
  1,                                      !- Value Until Time 2
  24,                                     !- Hour 3
  0,                                      !- Minute 3
  0;                                      !- Value Until Time 3

OS:Schedule:Day,
  {ca6a284f-0e58-404b-abd0-cca61dc0513f}, !- Handle
  OfficeMedium INFIL_SCH_PNNL_Wkdy_SmrDsn 1, !- Name
  {a3858e9d-60c8-4c1c-aac7-f4a9e1efd919}, !- Schedule Type Limits Name
  ,                                       !- Interpolate to Timestep
  6,                                      !- Hour 1
  6,                                      !- Minute 1
  0.25,                                   !- Value Until Time 1
  22,                                     !- Hour 2
  22,                                     !- Minute 2
  1,                                      !- Value Until Time 2
  24,                                     !- Hour 3
  0,                                      !- Minute 3
  0;                                      !- Value Until Time 3

OS:Schedule:Day,
  {bfa6d050-3397-40c2-ac21-5dc5bf325772}, !- Handle
  OfficeMedium INFIL_SCH_PNNL_Sat_WntrDsn, !- Name
  ,                                       !- Schedule Type Limits Name
  ,                                       !- Interpolate to Timestep
  6,                                      !- Hour 1
  6,                                      !- Minute 1
  0.25,                                   !- Value Until Time 1
  18,                                     !- Hour 2
  18,                                     !- Minute 2
  1,                                      !- Value Until Time 2
  24,                                     !- Hour 3
  0,                                      !- Minute 3
  0;                                      !- Value Until Time 3

OS:Schedule:Day,
  {24d0d0b6-6a30-4b0f-8ea3-a72fb0859bfe}, !- Handle
  OfficeMedium INFIL_SCH_PNNL_Sat_WntrDsn 1, !- Name
  {a3858e9d-60c8-4c1c-aac7-f4a9e1efd919}, !- Schedule Type Limits Name
  ,                                       !- Interpolate to Timestep
  6,                                      !- Hour 1
  6,                                      !- Minute 1
  0.25,                                   !- Value Until Time 1
  18,                                     !- Hour 2
  18,                                     !- Minute 2
  1,                                      !- Value Until Time 2
  24,                                     !- Hour 3
  0,                                      !- Minute 3
  0;                                      !- Value Until Time 3

OS:Schedule:Rule,
  {21a4d1c7-0b00-4d21-bc62-210d09c62280}, !- Handle
  Schedule Rule 1,                        !- Name
  {eb902f4c-d45d-4873-8ed9-ea802038c2d6}, !- Schedule Ruleset Name
  0,                                      !- Rule Order
  {ee582cb9-e014-4935-9e49-0ea1df93c219}, !- Day Schedule Name
  No,                                     !- Apply Sunday
  Yes,                                    !- Apply Monday
  Yes,                                    !- Apply Tuesday
  Yes,                                    !- Apply Wednesday
  Yes,                                    !- Apply Thursday
  Yes,                                    !- Apply Friday
  No,                                     !- Apply Saturday
  ,                                       !- Apply Holiday
  DateRange,                              !- Date Specification Type
  1,                                      !- Start Month
  1,                                      !- Start Day
  12,                                     !- End Month
  31;                                     !- End Day

OS:Schedule:Day,
  {ee582cb9-e014-4935-9e49-0ea1df93c219}, !- Handle
  Schedule Day 2,                         !- Name
  {a3858e9d-60c8-4c1c-aac7-f4a9e1efd919}, !- Schedule Type Limits Name
  ,                                       !- Interpolate to Timestep
  6,                                      !- Hour 1
  0,                                      !- Minute 1
  0.25,                                   !- Value Until Time 1
  22,                                     !- Hour 2
  0,                                      !- Minute 2
  1,                                      !- Value Until Time 2
  24,                                     !- Hour 3
  0,                                      !- Minute 3
  0;                                      !- Value Until Time 3

OS:YearDescription,
  {c4f3dec4-3ba7-4926-943e-33295ca0e31b}; !- Handle

OS:Schedule:Rule,
  {7f905d02-4664-4a4a-9b02-2111bea5e410}, !- Handle
  Schedule Rule 2,                        !- Name
  {eb902f4c-d45d-4873-8ed9-ea802038c2d6}, !- Schedule Ruleset Name
  1,                                      !- Rule Order
  {98b25e53-ca47-4253-b512-184dca63838c}, !- Day Schedule Name
  No,                                     !- Apply Sunday
  No,                                     !- Apply Monday
  No,                                     !- Apply Tuesday
  No,                                     !- Apply Wednesday
  No,                                     !- Apply Thursday
  No,                                     !- Apply Friday
  Yes,                                    !- Apply Saturday
  ,                                       !- Apply Holiday
  DateRange,                              !- Date Specification Type
  1,                                      !- Start Month