
OS:Version,
  {118a1b89-752b-4d4c-af70-abeeb723c157}, !- Handle
  2.8.1;                                  !- Version Identifier

OS:Material,
  {50bb6df1-d845-4ca0-914d-b14f24672168}, !- Handle
  Generic Wall Air Gap,                   !- Name
  Smooth,                                 !- Roughness
  0.1,                                    !- Thickness {m}
  0.667,                                  !- Conductivity {W/m-K}
  1.28,                                   !- Density {kg/m3}
  1000,                                   !- Specific Heat {J/kg-K}
  0.9,                                    !- Thermal Absorptance
  0.7,                                    !- Solar Absorptance
  0.7;                                    !- Visible Absorptance

OS:Material,
  {f0a170c5-0b36-4464-b625-70af251f60d4}, !- Handle
  Generic 25mm Wood,                      !- Name
  MediumSmooth,                           !- Roughness
  0.0254,                                 !- Thickness {m}
  0.15,                                   !- Conductivity {W/m-K}
  608,                                    !- Density {kg/m3}
  1630,                                   !- Specific Heat {J/kg-K}
  0.9,                                    !- Thermal Absorptance
  0.5,                                    !- Solar Absorptance
  0.5;                                    !- Visible Absorptance

OS:Material,
  {59be4ec2-1cbf-44c5-8d06-07ca85cbc26a}, !- Handle
  Generic HW Concrete,                    !- Name
  MediumRough,                            !- Roughness
  0.2,                                    !- Thickness {m}
  1.95,                                   !- Conductivity {W/m-K}
  2240,                                   !- Density {kg/m3}
  900,                                    !- Specific Heat {J/kg-K}
  0.9,                                    !- Thermal Absorptance
  0.8,                                    !- Solar Absorptance
  0.8;                                    !- Visible Absorptance

OS:WindowMaterial:Gas,
  {ed0b684f-89b9-4df1-bb71-ef3dc58f6e23}, !- Handle
  Generic Window Air Gap,                 !- Name
  Air,                                    !- Gas Type
  0.0127;                                 !- Thickness {m}

OS:Material,
  {fa053481-54f0-42a2-98a8-10027e93f75c}, !- Handle
  Generic Brick,                          !- Name
  MediumRough,                            !- Roughness
  0.1,                                    !- Thickness {m}
  0.9,                                    !- Conductivity {W/m-K}
  1920,                                   !- Density {kg/m3}
  790,                                    !- Specific Heat {J/kg-K}
  0.9,                                    !- Thermal Absorptance
  0.65,                                   !- Solar Absorptance
  0.65;                                   !- Visible Absorptance

OS:Material,
  {984cc0c1-77f5-4ffd-adc9-6e1e5681661f}, !- Handle
  Generic Painted Metal,                  !- Name
  Smooth,                                 !- Roughness
  0.0015,                                 !- Thickness {m}
  45,                                     !- Conductivity {W/m-K}
  7690,                                   !- Density {kg/m3}
  410,                                    !- Specific Heat {J/kg-K}
  0.9,                                    !- Thermal Absorptance
  0.5,                                    !- Solar Absorptance
  0.5;                                    !- Visible Absorptance

OS:Material,
  {9479fce2-3ed7-4199-a69e-ffd0ef9714b6}, !- Handle
  Generic Gypsum Board,                   !- Name
  MediumSmooth,                           !- Roughness
  0.0127,                                 !- Thickness {m}
  0.16,                                   !- Conductivity {W/m-K}
  800,                                    !- Density {kg/m3}
  1090,                                   !- Specific Heat {J/kg-K}
  0.9,                                    !- Thermal Absorptance
  0.5,                                    !- Solar Absorptance
  0.5;                                    !- Visible Absorptance

OS:Material,
  {6e676686-d445-4d5e-bad9-d4c8fcfdfa13}, !- Handle
  Generic Roof Membrane,                  !- Name
  MediumRough,                            !- Roughness
  0.01,                                   !- Thickness {m}
  0.16,                                   !- Conductivity {W/m-K}
  1120,                                   !- Density {kg/m3}
  1460,                                   !- Specific Heat {J/kg-K}
  0.9,                                    !- Thermal Absorptance
  0.65,                                   !- Solar Absorptance
  0.65;                                   !- Visible Absorptance

OS:WindowMaterial:Glazing,
  {877c1e7f-3cc9-48f1-b1bb-605f0f6e7523}, !- Handle
  Generic Clear Glass,                    !- Name
  SpectralAverage,                        !- Optical Data Type
  ,                                       !- Window Glass Spectral Data Set Name
  0.006,                                  !- Thickness {m}
  0.77,                                   !- Solar Transmittance at Normal Incidence
  0.07,                                   !- Front Side Solar Reflectance at Normal Incidence
  0.07,                                   !- Back Side Solar Reflectance at Normal Incidence
  0.88,                                   !- Visible Transmittance at Normal Incidence
  0.08,                                   !- Front Side Visible Reflectance at Normal Incidence
  0.08,                                   !- Back Side Visible Reflectance at Normal Incidence
  0,                                      !- Infrared Transmittance at Normal Incidence
  0.84,                                   !- Front Side Infrared Hemispherical Emissivity
  0.84,                                   !- Back Side Infrared Hemispherical Emissivity
  1,                                      !- Conductivity {W/m-K}
  1,                                      !- Dirt Correction Factor for Solar and Visible Transmittance
  No;                                     !- Solar Diffusing

OS:WindowMaterial:Glazing,
  {83cd595c-3002-4fda-b4d4-233541c59b43}, !- Handle
  Generic Low-e Glass,                    !- Name
  SpectralAverage,                        !- Optical Data Type
  ,                                       !- Window Glass Spectral Data Set Name
  0.006,                                  !- Thickness {m}
  0.45,                                   !- Solar Transmittance at Normal Incidence
  0.36,                                   !- Front Side Solar Reflectance at Normal Incidence
  0.36,                                   !- Back Side Solar Reflectance at Normal Incidence
  0.71,                                   !- Visible Transmittance at Normal Incidence
  0.21,                                   !- Front Side Visible Reflectance at Normal Incidence
  0.21,                                   !- Back Side Visible Reflectance at Normal Incidence
  0,                                      !- Infrared Transmittance at Normal Incidence
  0.84,                                   !- Front Side Infrared Hemispherical Emissivity
  0.047,                                  !- Back Side Infrared Hemispherical Emissivity
  1,                                      !- Conductivity {W/m-K}
  1,                                      !- Dirt Correction Factor for Solar and Visible Transmittance
  No;                                     !- Solar Diffusing

OS:Material,
  {96b68314-d61a-4f9f-a3f2-1393359f930e}, !- Handle
  Generic 25mm Insulation,                !- Name
  MediumRough,                            !- Roughness
  0.05,                                   !- Thickness {m}
  0.03,                                   !- Conductivity {W/m-K}
  43,                                     !- Density {kg/m3}
  1210,                                   !- Specific Heat {J/kg-K}
  0.9,                                    !- Thermal Absorptance
  0.7,                                    !- Solar Absorptance
  0.7;                                    !- Visible Absorptance

OS:Material,
  {4addcabd-3ac7-402d-add3-4caf46d01cbf}, !- Handle
  Generic Ceiling Air Gap,                !- Name
  Smooth,                                 !- Roughness
  0.1,                                    !- Thickness {m}
  0.556,                                  !- Conductivity {W/m-K}
  1.28,                                   !- Density {kg/m3}
  1000,                                   !- Specific Heat {J/kg-K}
  0.9,                                    !- Thermal Absorptance
  0.7,                                    !- Solar Absorptance
  0.7;                                    !- Visible Absorptance

OS:Material,
  {82fd9a33-9ec6-458b-882c-23b800d051d0}, !- Handle
  Generic LW Concrete,                    !- Name
  MediumRough,                            !- Roughness
  0.1,                                    !- Thickness {m}
  0.53,                                   !- Conductivity {W/m-K}
  1280,                                   !- Density {kg/m3}
  840,                                    !- Specific Heat {J/kg-K}
  0.9,                                    !- Thermal Absorptance
  0.8,                                    !- Solar Absorptance
  0.8;                                    !- Visible Absorptance

OS:Material,
  {05df1b77-5706-4a7d-9d8a-c937f91b63e8}, !- Handle
  Generic Acoustic Tile,                  !- Name
  MediumSmooth,                           !- Roughness
  0.02,                                   !- Thickness {m}
  0.06,                                   !- Conductivity {W/m-K}
  368,                                    !- Density {kg/m3}
  590,                                    !- Specific Heat {J/kg-K}
  0.9,                                    !- Thermal Absorptance
  0.2,                                    !- Solar Absorptance
  0.2;                                    !- Visible Absorptance

OS:Material,
  {d147c5a4-ef16-41d7-a4e3-878375d87738}, !- Handle
  Generic 50mm Insulation,                !- Name
  MediumRough,                            !- Roughness
  0.05,                                   !- Thickness {m}
  0.03,                                   !- Conductivity {W/m-K}
  43,                                     !- Density {kg/m3}
  1210,                                   !- Specific Heat {J/kg-K}
  0.9,                                    !- Thermal Absorptance
  0.7,                                    !- Solar Absorptance
  0.7;                                    !- Visible Absorptance

OS:Construction,
  {c102dac8-841c-4d56-b44f-5bec08ef86ca}, !- Handle
  Generic Underground Roof,               !- Name
  ,                                       !- Surface Rendering Name
  {d147c5a4-ef16-41d7-a4e3-878375d87738}, !- Layer 1
  {59be4ec2-1cbf-44c5-8d06-07ca85cbc26a}, !- Layer 2
  {4addcabd-3ac7-402d-add3-4caf46d01cbf}, !- Layer 3
  {05df1b77-5706-4a7d-9d8a-c937f91b63e8}; !- Layer 4

OS:Construction,
  {82f75ce5-69a4-4788-bbcd-77b41669208f}, !- Handle
  Generic Roof,                           !- Name
  ,                                       !- Surface Rendering Name
  {6e676686-d445-4d5e-bad9-d4c8fcfdfa13}, !- Layer 1
  {d147c5a4-ef16-41d7-a4e3-878375d87738}, !- Layer 2
  {82fd9a33-9ec6-458b-882c-23b800d051d0}, !- Layer 3
  {4addcabd-3ac7-402d-add3-4caf46d01cbf}, !- Layer 4
  {05df1b77-5706-4a7d-9d8a-c937f91b63e8}; !- Layer 5

OS:Construction,
  {4dbd80b9-edb9-4890-96e8-fae7ca4f6cfe}, !- Handle
  Indoor Light Shelf,                     !- Name
  ,                                       !- Surface Rendering Name
  {b55da52e-79c9-46c4-8bf3-fae70134dc6d}; !- Layer 1

OS:Material,
  {b55da52e-79c9-46c4-8bf3-fae70134dc6d}, !- Handle
  Material 1,                             !- Name
  Smooth,                                 !- Roughness
  0.1,                                    !- Thickness {m}
  0.1,                                    !- Conductivity {W/m-K}
  0.1,                                    !- Density {kg/m3}
  100,                                    !- Specific Heat {J/kg-K}
  ,                                       !- Thermal Absorptance
  0.3,                                    !- Solar Absorptance
  0.3;                                    !- Visible Absorptance

OS:Construction,
  {ab3c6f32-2ce1-4bce-bb71-d4545fa88123}, !- Handle
  Generic Interior Door,                  !- Name
  ,                                       !- Surface Rendering Name
  {f0a170c5-0b36-4464-b625-70af251f60d4}; !- Layer 1

OS:Construction,
  {a7c60e85-d3e4-4953-af50-cae8372c5dc0}, !- Handle
  Generic Interior Wall,                  !- Name
  ,                                       !- Surface Rendering Name
  {9479fce2-3ed7-4199-a69e-ffd0ef9714b6}, !- Layer 1
  {50bb6df1-d845-4ca0-914d-b14f24672168}, !- Layer 2
  {9479fce2-3ed7-4199-a69e-ffd0ef9714b6}; !- Layer 3

OS:Construction,
  {238d026e-3def-44d4-955b-014522b2834e}, !- Handle
  Generic Single Pane,                    !- Name
  ,                                       !- Surface Rendering Name
  {877c1e7f-3cc9-48f1-b1bb-605f0f6e7523}; !- Layer 1

OS:Construction,
  {cdaf3f01-6df1-4a1e-a14e-5a2758052f94}, !- Handle
  Generic Interior Ceiling,               !- Name
  ,                                       !- Surface Rendering Name
  {82fd9a33-9ec6-458b-882c-23b800d051d0}, !- Layer 1
  {4addcabd-3ac7-402d-add3-4caf46d01cbf}, !- Layer 2
  {05df1b77-5706-4a7d-9d8a-c937f91b63e8}; !- Layer 3

OS:Construction,
  {2e1f2b6e-6b88-4f60-8efd-c77b2856bcda}, !- Handle
  Generic Exposed Floor,                  !- Name
  ,                                       !- Surface Rendering Name
  {984cc0c1-77f5-4ffd-adc9-6e1e5681661f}, !- Layer 1
  {4addcabd-3ac7-402d-add3-4caf46d01cbf}, !- Layer 2
  {d147c5a4-ef16-41d7-a4e3-878375d87738}, !- Layer 3
  {82fd9a33-9ec6-458b-882c-23b800d051d0}; !- Layer 4

OS:Construction,
  {727e044d-6a51-4e71-800d-5ba1c161e79b}, !- Handle
  Generic Interior Floor,                 !- Name
  ,                                       !- Surface Rendering Name
  {05df1b77-5706-4a7d-9d8a-c937f91b63e8}, !- Layer 1
  {4addcabd-3ac7-402d-add3-4caf46d01cbf}, !- Layer 2
  {82fd9a33-9ec6-458b-882c-23b800d051d0}; !- Layer 3

OS:Construction,
  {0a31afb6-e41b-4c7c-9013-00e26d299dd9}, !- Handle
  Generic Double Pane,                    !- Name
  ,                                       !- Surface Rendering Name
  {83cd595c-3002-4fda-b4d4-233541c59b43}, !- Layer 1
  {ed0b684f-89b9-4df1-bb71-ef3dc58f6e23}, !- Layer 2
  {877c1e7f-3cc9-48f1-b1bb-605f0f6e7523}; !- Layer 3

OS:Construction,
  {48c1bdb7-568c-4d77-a5ba-909ebadbcaa9}, !- Handle
  Generic Exterior Wall,                  !- Name
  ,                                       !- Surface Rendering Name
  {fa053481-54f0-42a2-98a8-10027e93f75c}, !- Layer 1
  {82fd9a33-9ec6-458b-882c-23b800d051d0}, !- Layer 2
  {d147c5a4-ef16-41d7-a4e3-878375d87738}, !- Layer 3
  {50bb6df1-d845-4ca0-914d-b14f24672168}, !- Layer 4
  {9479fce2-3ed7-4199-a69e-ffd0ef9714b6}; !- Layer 5

OS:Construction,
  {5e49a1e1-9366-48db-8a66-c6f534ef6a52}, !- Handle
  Generic Shade,                          !- Name
  ,                                       !- Surface Rendering Name
  {f1710a55-92bc-4a8e-9da4-8e8938bf833a}; !- Layer 1

OS:Material,
  {f1710a55-92bc-4a8e-9da4-8e8938bf833a}, !- Handle
  Material 2,                             !- Name
  Smooth,                                 !- Roughness
  0.1,                                    !- Thickness {m}
  0.1,                                    !- Conductivity {W/m-K}
  0.1,                                    !- Density {kg/m3}
  100,                                    !- Specific Heat {J/kg-K}
  ,                                       !- Thermal Absorptance
  0.65,                                   !- Solar Absorptance
  0.65;                                   !- Visible Absorptance

OS:Construction,
  {21778504-c6f6-4374-adbd-2d27bae15383}, !- Handle
  Generic Ground Slab,                    !- Name
  ,                                       !- Surface Rendering Name
  {d147c5a4-ef16-41d7-a4e3-878375d87738}, !- Layer 1
  {59be4ec2-1cbf-44c5-8d06-07ca85cbc26a}; !- Layer 2

OS:Construction,
  {857aeb95-62a8-41eb-acb3-78b910af68cd}, !- Handle
  Generic Exterior Door,                  !- Name
  ,                                       !- Surface Rendering Name
  {984cc0c1-77f5-4ffd-adc9-6e1e5681661f}, !- Layer 1
  {96b68314-d61a-4f9f-a3f2-1393359f930e}, !- Layer 2
  {984cc0c1-77f5-4ffd-adc9-6e1e5681661f}; !- Layer 3

OS:Construction,
  {80c78a36-2415-4b62-a0a2-a0f4eb519445}, !- Handle
  Generic Underground Wall,               !- Name
  ,                                       !- Surface Rendering Name
  {d147c5a4-ef16-41d7-a4e3-878375d87738}, !- Layer 1
  {59be4ec2-1cbf-44c5-8d06-07ca85cbc26a}, !- Layer 2
  {50bb6df1-d845-4ca0-914d-b14f24672168}, !- Layer 3
  {9479fce2-3ed7-4199-a69e-ffd0ef9714b6}; !- Layer 4

OS:Construction,
  {c9c21209-4463-44c3-8b31-8277aed68660}, !- Handle
  Outdoor Light Shelf,                    !- Name
  ,                                       !- Surface Rendering Name
  {b69ac071-79e0-4c37-b764-2a11d51746df}; !- Layer 1

OS:Material,
  {b69ac071-79e0-4c37-b764-2a11d51746df}, !- Handle
  Material 3,                             !- Name
  Smooth,                                 !- Roughness
  0.1,                                    !- Thickness {m}
  0.1,                                    !- Conductivity {W/m-K}
  0.1,                                    !- Density {kg/m3}
  100,                                    !- Specific Heat {J/kg-K}
  ,                                       !- Thermal Absorptance
  0.5,                                    !- Solar Absorptance
  0.5;                                    !- Visible Absorptance

OS:DefaultConstructionSet,
  {22613690-82fe-4d0b-8cda-427c67436bd3}, !- Handle
  Default Generic Construction Set,       !- Name
  {c5da2e61-1ce7-4751-9fd2-e7be2953f60d}, !- Default Exterior Surface Constructions Name
  {34a6ca1f-13b5-470e-ba57-1bbf1a205943}, !- Default Interior Surface Constructions Name
  {c5da2e61-1ce7-4751-9fd2-e7be2953f60d}, !- Default Ground Contact Surface Constructions Name
  {57e62a58-1ed1-4935-8ca2-ee9df256e111}, !- Default Exterior SubSurface Constructions Name
  {c9d107c2-017e-4df0-ae3c-4fdccca75763}, !- Default Interior SubSurface Constructions Name
  ,                                       !- Interior Partition Construction Name
  {5e49a1e1-9366-48db-8a66-c6f534ef6a52}, !- Space Shading Construction Name
  ,                                       !- Building Shading Construction Name
  ,                                       !- Site Shading Construction Name
  ;                                       !- Adiabatic Surface Construction Name

OS:DefaultSurfaceConstructions,
  {34a6ca1f-13b5-470e-ba57-1bbf1a205943}, !- Handle
  Default Surface Constructions 1,        !- Name
  {727e044d-6a51-4e71-800d-5ba1c161e79b}, !- Floor Construction Name
  {a7c60e85-d3e4-4953-af50-cae8372c5dc0}, !- Wall Construction Name
  {cdaf3f01-6df1-4a1e-a14e-5a2758052f94}; !- Roof Ceiling Construction Name

OS:DefaultSurfaceConstructions,
  {bd3e1f54-7770-4fad-a0aa-97039492c52b}, !- Handle
  Default Surface Constructions 2,        !- Name
  {2e1f2b6e-6b88-4f60-8efd-c77b2856bcda}, !- Floor Construction Name
  {48c1bdb7-568c-4d77-a5ba-909ebadbcaa9}, !- Wall Construction Name
  {82f75ce5-69a4-4788-bbcd-77b41669208f}; !- Roof Ceiling Construction Name

OS:DefaultSurfaceConstructions,
  {c5da2e61-1ce7-4751-9fd2-e7be2953f60d}, !- Handle
  Default Surface Constructions 3,        !- Name
  {21778504-c6f6-4374-adbd-2d27bae15383}, !- Floor Construction Name
  {80c78a36-2415-4b62-a0a2-a0f4eb519445}, !- Wall Construction Name
  {c102dac8-841c-4d56-b44f-5bec08ef86ca}; !- Roof Ceiling Construction Name

OS:DefaultSubSurfaceConstructions,
  {c9d107c2-017e-4df0-ae3c-4fdccca75763}, !- Handle
  Default Sub Surface Constructions 1,    !- Name
  ,                                       !- Fixed Window Construction Name
  {238d026e-3def-44d4-955b-014522b2834e}, !- Operable Window Construction Name
  ,                                       !- Door Construction Name
  {238d026e-3def-44d4-955b-014522b2834e}, !- Glass Door Construction Name
  {ab3c6f32-2ce1-4bce-bb71-d4545fa88123}, !- Overhead Door Construction Name
  ,                                       !- Skylight Construction Name
  ,                                       !- Tubular Daylight Dome Construction Name
  ;                                       !- Tubular Daylight Diffuser Construction Name

OS:DefaultSubSurfaceConstructions,
  {57e62a58-1ed1-4935-8ca2-ee9df256e111}, !- Handle
  Default Sub Surface Constructions 2,    !- Name
  {0a31afb6-e41b-4c7c-9013-00e26d299dd9}, !- Fixed Window Construction Name
  ,                                       !- Operable Window Construction Name
  {857aeb95-62a8-41eb-acb3-78b910af68cd}, !- Door Construction Name
  {0a31afb6-e41b-4c7c-9013-00e26d299dd9}, !- Glass Door Construction Name
  ,                                       !- Overhead Door Construction Name
  {0a31afb6-e41b-4c7c-9013-00e26d299dd9}, !- Skylight Construction Name
  ,                                       !- Tubular Daylight Dome Construction Name
  ;                                       !- Tubular Daylight Diffuser Construction Name

OS:Building,
  {5728b428-accf-4ec5-95a2-c7a927bacfab}, !- Handle
  Building 1,                             !- Name
  ,                                       !- Building Sector Type
  ,                                       !- North Axis {deg}
  ,                                       !- Nominal Floor to Floor Height {m}
  ,                                       !- Space Type Name
  {22613690-82fe-4d0b-8cda-427c67436bd3}, !- Default Construction Set Name
  ;                                       !- Default Schedule Set Name

OS:ScheduleTypeLimits,
  {4b49f4ab-38d5-4fd5-bfd9-f1f7ca6d133f}, !- Handle
  Temperature,                            !- Name
  -273.15,                                !- Lower Limit Value
  ,                                       !- Upper Limit Value
  Continuous,                             !- Numeric Type
  Temperature;                            !- Unit Type

OS:ScheduleTypeLimits,
  {67729d60-d7ea-4562-ab1c-6ea6eed5345e}, !- Handle
  Fractional,                             !- Name
  0,                                      !- Lower Limit Value
  1,                                      !- Upper Limit Value
  Continuous,                             !- Numeric Type
  Dimensionless;                          !- Unit Type

OS:ScheduleTypeLimits,
  {a41ada1f-c279-4474-83f2-b82d2e11fca1}, !- Handle
  Activity Level,                         !- Name
  0,                                      !- Lower Limit Value
  ,                                       !- Upper Limit Value
  Continuous,                             !- Numeric Type
  ActivityLevel;                          !- Unit Type

OS:Schedule:Ruleset,
  {2f8bc58f-1619-4f80-8419-cabce93889b5}, !- Handle
  Generic Office Heating,                 !- Name
  {4b49f4ab-38d5-4fd5-bfd9-f1f7ca6d133f}, !- Schedule Type Limits Name
  {d8a96cf0-291d-4b2f-b4a1-8b0ccce1f0d1}, !- Default Day Schedule Name
  {d02651df-855b-438a-b019-b919bdc6c86e}, !- Summer Design Day Schedule Name
  {9938a659-5486-4cee-b00e-971373b034db}; !- Winter Design Day Schedule Name

OS:Schedule:Day,
  {d8a96cf0-291d-4b2f-b4a1-8b0ccce1f0d1}, !- Handle
  Schedule Day 1,                         !- Name
  {4b49f4ab-38d5-4fd5-bfd9-f1f7ca6d133f}, !- Schedule Type Limits Name
  ,                                       !- Interpolate to Timestep
  24,                                     !- Hour 1
  0,                                      !- Minute 1
  0;                                      !- Value Until Time 1

OS:Schedule:Day,
  {d2211e29-9612-43c4-bd7c-f853985fbc54}, !- Handle
  OfficeMedium HTGSETP_SCH_YES_OPTIMUM_Default, !- Name
  ,                                       !- Schedule Type Limits Name
  ,                                       !- Interpolate to Timestep
  24,                                     !- Hour 1
  0,                                      !- Minute 1
  0;                                      !- Value Until Time 1

OS:Schedule:Day,
  {573a845d-26b8-47f2-a08f-85975c1a986b}, !- Handle
  OfficeMedium HTGSETP_SCH_YES_OPTIMUM_Default_SmrDsn, !- Name
  ,                                       !- Schedule Type Limits Name
  ,                                       !- Interpolate to Timestep
  24,                                     !- Hour 1
  0,                                      !- Minute 1
  0;                                      !- Value Until Time 1

OS:Schedule:Day,
  {d7fb5400-5888-4c4f-999c-748994aa285b}, !- Handle
  OfficeMedium HTGSETP_SCH_YES_OPTIMUM_WntrDsn, !- Name
  ,                                       !- Schedule Type Limits Name
  ,                                       !- Interpolate to Timestep
  5,                                      !- Hour 1
  0,                                      !- Minute 1
  17.6,                                   !- Value Until Time 1
  6,                                      !- Hour 2
  0,                                      !- Minute 2
  19.6,                                   !- Value Until Time 2
  7,                                      !- Hour 3
  0,                                      !- Minute 3
  21,                                     !- Value Until Time 3
  22,                                     !- Hour 4
  0,                                      !- Minute 4
  15.6,                                   !- Value Until Time 4
  24,                                     !- Hour 5
  0,                                      !- Minute 5
  0;                                      !- Value Until Time 5

OS:Schedule:Day,
  {ec8456a2-1807-40ad-a01e-dfa07b913e38}, !- Handle
  OfficeMedium HTGSETP_SCH_YES_OPTIMUM_Wkdy, !- Name
  ,                                       !- Schedule Type Limits Name
  ,                                       !- Interpolate to Timestep
  5,                                      !- Hour 1
  0,                                      !- Minute 1
  17.8,                                   !- Value Until Time 1
  6,                                      !- Hour 2
  0,                                      !- Minute 2
  20,                                     !- Value Until Time 2
  7,                                      !- Hour 3
  0,                                      !- Minute 3
  21,                                     !- Value Until Time 3
  22,                                     !- Hour 4
  0,                                      !- Minute 4
  15.6,                                   !- Value Until Time 4
  24,                                     !- Hour 5
  0,                                      !- Minute 5
  0;                                      !- Value Until Time 5

OS:Schedule:Day,
  {0bf8e9b8-fdbc-4806-bf6a-80699dcaea4f}, !- Handle
  OfficeMedium HTGSETP_SCH_YES_OPTIMUM_Sat, !- Name
  ,                                       !- Schedule Type Limits Name
  ,                                       !- Interpolate to Timestep
  5,                                      !- Hour 1
  0,                                      !- Minute 1
  17.8,                                   !- Value Until Time 1
  6,                                      !- Hour 2
  0,                                      !- Minute 2
  20,                                     !- Value Until Time 2
  7,                                      !- Hour 3
  0,                                      !- Minute 3
  21,                                     !- Value Until Time 3
  17,                                     !- Hour 4
  0,                                      !- Minute 4
  15.6,                                   !- Value Until Time 4
  24,                                     !- Hour 5
  0,                                      !- Minute 5
  0;                                      !- Value Until Time 5

OS:Schedule:Day,
  {d02651df-855b-438a-b019-b919bdc6c86e}, !- Handle
  OfficeMedium HTGSETP_SCH_YES_OPTIMUM_Default_SmrDsn 1, !- Name
  {4b49f4ab-38d5-4fd5-bfd9-f1f7ca6d133f}, !- Schedule Type Limits Name
  ,                                       !- Interpolate to Timestep
  24,                                     !- Hour 1
  0,                                      !- Minute 1
  0;                                      !- Value Until Time 1

OS:Schedule:Day,
  {9938a659-5486-4cee-b00e-971373b034db}, !- Handle
  OfficeMedium HTGSETP_SCH_YES_OPTIMUM_WntrDsn 1, !- Name
  {4b49f4ab-38d5-4fd5-bfd9-f1f7ca6d133f}, !- Schedule Type Limits Name
  ,                                       !- Interpolate to Timestep
  5,                                      !- Hour 1
  0,                                      !- Minute 1
  17.6,                                   !- Value Until Time 1
  6,                                      !- Hour 2
  0,                                      !- Minute 2
  19.6,                                   !- Value Until Time 2
  7,                                      !- Hour 3
  0,                                      !- Minute 3
  21,                                     !- Value Until Time 3
  22,                                     !- Hour 4
  0,                                      !- Minute 4
  15.6,                                   !- Value Until Time 4
  24,                                     !- Hour 5
  0,                                      !- Minute 5
  0;                                      !- Value Until Time 5

OS:Schedule:Rule,
  {5c9da55d-50eb-4f43-bd6b-d3c685f22825}, !- Handle
  Schedule Rule 1,                        !- Name
  {2f8bc58f-1619-4f80-8419-cabce93889b5}, !- Schedule Ruleset Name
  0,                                      !- Rule Order
  {d75b50c3-fa62-4b09-8cac-670e90852e75}, !- Day Schedule Name
  No,                                     !- Apply Sunday
  Yes,                                    !- Apply Monday