
OS:Version,
  {e457e4ca-c82f-454a-bbb0-d0ab14c1326e}, !- Handle
  2.9.0;                                  !- Version Identifier

OS:Material,
  {f650ff2f-264f-4c8f-afaa-a7b71a92ce7b}, !- Handle
  Generic Gypsum Board,                   !- Name
  MediumSmooth,                           !- Roughness
  0.0127,                                 !- Thickness {m}
  0.16,                                   !- Conductivity {W/m-K}
  800,                                    !- Density {kg/m3}
  1090,                                   !- Specific Heat {J/kg-K}
  0.9,                                    !- Thermal Absorptance
  0.5,                                    !- Solar Absorptance
  0.5;                                    !- Visible Absorptance

OS:Material,
  {37fd134a-dc2b-4e45-b090-624b83b90af1}, !- Handle
  Generic HW Concrete,                    !- Name
  MediumRough,                            !- Roughness
  0.2,                                    !- Thickness {m}
  1.95,                                   !- Conductivity {W/m-K}
  2240,                                   !- Density {kg/m3}
  900,                                    !- Specific Heat {J/kg-K}
  0.9,                                    !- Thermal Absorptance
  0.8,                                    !- Solar Absorptance
  0.8;                                    !- Visible Absorptance

OS:Material,
  {23c9990c-c30d-44e5-8324-71f259916a69}, !- Handle
  Generic Wall Air Gap,                   !- Name
  Smooth,                                 !- Roughness
  0.1,                                    !- Thickness {m}
  0.667,                                  !- Conductivity {W/m-K}
  1.28,                                   !- Density {kg/m3}
  1000,                                   !- Specific Heat {J/kg-K}
  0.9,                                    !- Thermal Absorptance
  0.7,                                    !- Solar Absorptance
  0.7;                                    !- Visible Absorptance

OS:WindowMaterial:Gas,
  {509565a5-524f-4182-80d8-5a4d80999f0f}, !- Handle
  Generic Window Air Gap,                 !- Name
  Air,                                    !- Gas Type
  0.0127;                                 !- Thickness {m}

OS:Material,
  {5c0a140c-e99b-495a-bbd5-e64475fd618f}, !- Handle
  Generic Painted Metal,                  !- Name
  Smooth,                                 !- Roughness
  0.0015,                                 !- Thickness {m}
  45,                                     !- Conductivity {W/m-K}
  7690,                                   !- Density {kg/m3}
  410,                                    !- Specific Heat {J/kg-K}
  0.9,                                    !- Thermal Absorptance
  0.5,                                    !- Solar Absorptance
  0.5;                                    !- Visible Absorptance

OS:WindowMaterial:Glazing,
  {90fbb184-54b7-4511-9c19-ab1b0091567f}, !- Handle
  Generic Clear Glass,                    !- Name
  SpectralAverage,                        !- Optical Data Type
  ,                                       !- Window Glass Spectral Data Set Name
  0.006,                                  !- Thickness {m}
  0.77,                                   !- Solar Transmittance at Normal Incidence
  0.07,                                   !- Front Side Solar Reflectance at Normal Incidence
  0.07,                                   !- Back Side Solar Reflectance at Normal Incidence
  0.88,                                   !- Visible Transmittance at Normal Incidence
  0.08,                                   !- Front Side Visible Reflectance at Normal Incidence
  0.08,                                   !- Back Side Visible Reflectance at Normal Incidence
  0,                                      !- Infrared Transmittance at Normal Incidence
  0.84,                                   !- Front Side Infrared Hemispherical Emissivity
  0.84,                                   !- Back Side Infrared Hemispherical Emissivity
  1,                                      !- Conductivity {W/m-K}
  1,                                      !- Dirt Correction Factor for Solar and Visible Transmittance
  No;                                     !- Solar Diffusing

OS:Material,
  {e72fd68c-3799-4f2f-8e51-2b3358785eb2}, !- Handle
  Generic 25mm Wood,                      !- Name
  MediumSmooth,                           !- Roughness
  0.0254,                                 !- Thickness {m}
  0.15,                                   !- Conductivity {W/m-K}
  608,                                    !- Density {kg/m3}
  1630,                                   !- Specific Heat {J/kg-K}
  0.9,                                    !- Thermal Absorptance
  0.5,                                    !- Solar Absorptance
  0.5;                                    !- Visible Absorptance

OS:WindowMaterial:Glazing,
  {8c231863-1321-4681-81d3-ad92fd00d6a9}, !- Handle
  Generic Low-e Glass,                    !- Name
  SpectralAverage,                        !- Optical Data Type
  ,                                       !- Window Glass Spectral Data Set Name
  0.006,                                  !- Thickness {m}
  0.45,                                   !- Solar Transmittance at Normal Incidence
  0.36,                                   !- Front Side Solar Reflectance at Normal Incidence
  0.36,                                   !- Back Side Solar Reflectance at Normal Incidence
  0.71,                                   !- Visible Transmittance at Normal Incidence
  0.21,                                   !- Front Side Visible Reflectance at Normal Incidence
  0.21,                                   !- Back Side Visible Reflectance at Normal Incidence
  0,                                      !- Infrared Transmittance at Normal Incidence
  0.84,                                   !- Front Side Infrared Hemispherical Emissivity
  0.047,                                  !- Back Side Infrared Hemispherical Emissivity
  1,                                      !- Conductivity {W/m-K}
  1,                                      !- Dirt Correction Factor for Solar and Visible Transmittance
  No;                                     !- Solar Diffusing

OS:Material,
  {42fc1602-709e-4be1-a0f9-932eeabe458f}, !- Handle
  Generic 50mm Insulation,                !- Name
  MediumRough,                            !- Roughness
  0.05,                                   !- Thickness {m}
  0.03,                                   !- Conductivity {W/m-K}
  43,                                     !- Density {kg/m3}
  1210,                                   !- Specific Heat {J/kg-K}
  0.9,                                    !- Thermal Absorptance
  0.7,                                    !- Solar Absorptance
  0.7;                                    !- Visible Absorptance

OS:Material,
  {b48cdaac-0981-44a2-a5fe-df228829f1ff}, !- Handle
  PolyIso,                                !- Name
  MediumRough,                            !- Roughness
  0.2,                                    !- Thickness {m}
  0.03,                                   !- Conductivity {W/m-K}
  43,                                     !- Density {kg/m3}
  1210,                                   !- Specific Heat {J/kg-K}
  0.9,                                    !- Thermal Absorptance
  0.7,                                    !- Solar Absorptance
  0.7;                                    !- Visible Absorptance

OS:Material,
  {0282c18c-ae2a-4dd3-ae51-ee5d6b3e9eb0}, !- Handle
  Generic Ceiling Air Gap,                !- Name
  Smooth,                                 !- Roughness
  0.1,                                    !- Thickness {m}
  0.556,                                  !- Conductivity {W/m-K}
  1.28,                                   !- Density {kg/m3}
  1000,                                   !- Specific Heat {J/kg-K}
  0.9,                                    !- Thermal Absorptance
  0.7,                                    !- Solar Absorptance
  0.7;                                    !- Visible Absorptance

OS:Material,
  {28e383ed-f93d-4df9-9bb4-77c8312936bf}, !- Handle
  Generic Brick,                          !- Name
  MediumRough,                            !- Roughness
  0.1,                                    !- Thickness {m}
  0.9,                                    !- Conductivity {W/m-K}
  1920,                                   !- Density {kg/m3}
  790,                                    !- Specific Heat {J/kg-K}
  0.9,                                    !- Thermal Absorptance
  0.65,                                   !- Solar Absorptance
  0.65;                                   !- Visible Absorptance

OS:Material,
  {6252b13d-6858-4616-ac52-1a8d9f966356}, !- Handle
  Generic 25mm Insulation,                !- Name
  MediumRough,                            !- Roughness
  0.05,                                   !- Thickness {m}
  0.03,                                   !- Conductivity {W/m-K}
  43,                                     !- Density {kg/m3}
  1210,                                   !- Specific Heat {J/kg-K}
  0.9,                                    !- Thermal Absorptance
  0.7,                                    !- Solar Absorptance
  0.7;                                    !- Visible Absorptance

OS:Material,
  {e32d7bc5-2e87-4f4d-ad84-9a6abe184eed}, !- Handle
  Generic Roof Membrane,                  !- Name
  MediumRough,                            !- Roughness
  0.01,                                   !- Thickness {m}
  0.16,                                   !- Conductivity {W/m-K}
  1120,                                   !- Density {kg/m3}
  1460,                                   !- Specific Heat {J/kg-K}
  0.9,                                    !- Thermal Absorptance
  0.65,                                   !- Solar Absorptance
  0.65;                                   !- Visible Absorptance

OS:Material,
  {e23c2853-8e1b-4ee5-8649-1b3e9e07ff8c}, !- Handle
  Generic Acoustic Tile,                  !- Name
  MediumSmooth,                           !- Roughness
  0.02,                                   !- Thickness {m}
  0.06,                                   !- Conductivity {W/m-K}
  368,                                    !- Density {kg/m3}
  590,                                    !- Specific Heat {J/kg-K}
  0.9,                                    !- Thermal Absorptance
  0.2,                                    !- Solar Absorptance
  0.2;                                    !- Visible Absorptance

OS:Material,
  {f9760dd9-87f3-4e9d-a758-fbf729c168df}, !- Handle
  Generic LW Concrete,                    !- Name
  MediumRough,                            !- Roughness
  0.1,                                    !- Thickness {m}
  0.53,                                   !- Conductivity {W/m-K}
  1280,                                   !- Density {kg/m3}
  840,                                    !- Specific Heat {J/kg-K}
  0.9,                                    !- Thermal Absorptance
  0.8,                                    !- Solar Absorptance
  0.8;                                    !- Visible Absorptance

OS:Construction,
  {21c9aada-1024-4f35-bbb1-656d3254524a}, !- Handle
  Attic Roof Construction,                !- Name
  ,                                       !- Surface Rendering Name
  {e32d7bc5-2e87-4f4d-ad84-9a6abe184eed}, !- Layer 1
  {b48cdaac-0981-44a2-a5fe-df228829f1ff}, !- Layer 2
  {e72fd68c-3799-4f2f-8e51-2b3358785eb2}; !- Layer 3

OS:Construction,
  {7c14b5ca-db13-458c-998c-cf64cb89fe15}, !- Handle
  Generic Exterior Wall,                  !- Name
  ,                                       !- Surface Rendering Name
  {28e383ed-f93d-4df9-9bb4-77c8312936bf}, !- Layer 1
  {f9760dd9-87f3-4e9d-a758-fbf729c168df}, !- Layer 2
  {42fc1602-709e-4be1-a0f9-932eeabe458f}, !- Layer 3
  {23c9990c-c30d-44e5-8324-71f259916a69}, !- Layer 4
  {f650ff2f-264f-4c8f-afaa-a7b71a92ce7b}; !- Layer 5

OS:Construction,
  {89b56155-1510-4efb-8044-4ffd4b3a0296}, !- Handle
  Generic Exposed Floor,                  !- Name
  ,                                       !- Surface Rendering Name
  {5c0a140c-e99b-495a-bbd5-e64475fd618f}, !- Layer 1
  {0282c18c-ae2a-4dd3-ae51-ee5d6b3e9eb0}, !- Layer 2
  {42fc1602-709e-4be1-a0f9-932eeabe458f}, !- Layer 3
  {f9760dd9-87f3-4e9d-a758-fbf729c168df}; !- Layer 4

OS:Construction,
  {7fa0c414-d523-41e1-8edf-3f706abbc67f}, !- Handle
  Generic Interior Ceiling,               !- Name
  ,                                       !- Surface Rendering Name
  {f9760dd9-87f3-4e9d-a758-fbf729c168df}, !- Layer 1
  {0282c18c-ae2a-4dd3-ae51-ee5d6b3e9eb0}, !- Layer 2
  {e23c2853-8e1b-4ee5-8649-1b3e9e07ff8c}; !- Layer 3

OS:Construction,
  {6af02139-a93b-453f-b3e6-6c0f8f54564b}, !- Handle
  Attic Floor Construction,               !- Name
  ,                                       !- Surface Rendering Name
  {e72fd68c-3799-4f2f-8e51-2b3358785eb2}, !- Layer 1
  {42fc1602-709e-4be1-a0f9-932eeabe458f}, !- Layer 2
  {e72fd68c-3799-4f2f-8e51-2b3358785eb2}; !- Layer 3

OS:Construction,
  {0f6b09be-d7f7-4210-8ea8-e71b08f2c469}, !- Handle
  Generic Underground Wall,               !- Name
  ,                                       !- Surface Rendering Name
  {42fc1602-709e-4be1-a0f9-932eeabe458f}, !- Layer 1
  {37fd134a-dc2b-4e45-b090-624b83b90af1}, !- Layer 2
  {23c9990c-c30d-44e5-8324-71f259916a69}, !- Layer 3
  {f650ff2f-264f-4c8f-afaa-a7b71a92ce7b}; !- Layer 4

OS:Construction,
  {d0bc9656-82e3-4975-a5ef-608e2e08dff2}, !- Handle
  Generic Ground Slab,                    !- Name
  ,                                       !- Surface Rendering Name
  {42fc1602-709e-4be1-a0f9-932eeabe458f}, !- Layer 1
  {37fd134a-dc2b-4e45-b090-624b83b90af1}; !- Layer 2

OS:Construction,
  {dc3b1cea-cb2f-4f26-b0cb-578dc24acb84}, !- Handle
  Generic Shade,                          !- Name
  ,                                       !- Surface Rendering Name
  {4cdbeedb-8ebd-48a4-a4f1-a869291ab482}; !- Layer 1

OS:Material,
  {4cdbeedb-8ebd-48a4-a4f1-a869291ab482}, !- Handle
  Material 1,                             !- Name
  Smooth,                                 !- Roughness
  0.1,                                    !- Thickness {m}
  0.1,                                    !- Conductivity {W/m-K}
  0.1,                                    !- Density {kg/m3}
  0.1,                                    !- Specific Heat {J/kg-K}
  ,                                       !- Thermal Absorptance
  0.65,                                   !- Solar Absorptance
  0.65;                                   !- Visible Absorptance

OS:Construction,
  {0cba7a40-f938-4a82-963b-fea753249d0d}, !- Handle
  Generic Underground Roof,               !- Name
  ,                                       !- Surface Rendering Name
  {42fc1602-709e-4be1-a0f9-932eeabe458f}, !- Layer 1
  {37fd134a-dc2b-4e45-b090-624b83b90af1}, !- Layer 2
  {0282c18c-ae2a-4dd3-ae51-ee5d6b3e9eb0}, !- Layer 3
  {e23c2853-8e1b-4ee5-8649-1b3e9e07ff8c}; !- Layer 4

OS:Construction,
  {cdca439b-6ccd-4536-a0e3-b891bc238710}, !- Handle
  Generic Interior Wall,                  !- Name
  ,                                       !- Surface Rendering Name
  {f650ff2f-264f-4c8f-afaa-a7b71a92ce7b}, !- Layer 1
  {23c9990c-c30d-44e5-8324-71f259916a69}, !- Layer 2
  {f650ff2f-264f-4c8f-afaa-a7b71a92ce7b}; !- Layer 3

OS:Construction,
  {95b15536-5479-4eeb-8cb1-3b1fca6ec4e1}, !- Handle
  Generic Roof,                           !- Name
  ,                                       !- Surface Rendering Name
  {e32d7bc5-2e87-4f4d-ad84-9a6abe184eed}, !- Layer 1
  {42fc1602-709e-4be1-a0f9-932eeabe458f}, !- Layer 2
  {f9760dd9-87f3-4e9d-a758-fbf729c168df}, !- Layer 3
  {0282c18c-ae2a-4dd3-ae51-ee5d6b3e9eb0}, !- Layer 4
  {e23c2853-8e1b-4ee5-8649-1b3e9e07ff8c}; !- Layer 5

OS:Construction,
  {3c1894f1-cd74-4467-ac6e-efb308b3a3ba}, !- Handle
  Generic Single Pane,                    !- Name
  ,                                       !- Surface Rendering Name
  {90fbb184-54b7-4511-9c19-ab1b0091567f}; !- Layer 1

OS:Construction,
  {74a03c71-9584-48c7-96bc-8b0fc74fc09c}, !- Handle
  Generic Double Pane,                    !- Name
  ,                                       !- Surface Rendering Name
  {8c231863-1321-4681-81d3-ad92fd00d6a9}, !- Layer 1
  {509565a5-524f-4182-80d8-5a4d80999f0f}, !- Layer 2
  {90fbb184-54b7-4511-9c19-ab1b0091567f}; !- Layer 3

OS:Construction,
  {499f812b-512b-4966-a09b-4bf3629244ca}, !- Handle
  Generic Interior Door,                  !- Name
  ,                                       !- Surface Rendering Name
  {e72fd68c-3799-4f2f-8e51-2b3358785eb2}; !- Layer 1

OS:Construction,
  {efc3e7f0-0013-4fc5-9233-8c116a927c8e}, !- Handle
  Generic Exterior Door,                  !- Name
  ,                                       !- Surface Rendering Name
  {5c0a140c-e99b-495a-bbd5-e64475fd618f}, !- Layer 1
  {6252b13d-6858-4616-ac52-1a8d9f966356}, !- Layer 2
  {5c0a140c-e99b-495a-bbd5-e64475fd618f}; !- Layer 3

OS:Construction,
  {e884cd22-bbe7-42f2-bee9-b44d7f9f5ade}, !- Handle
  Generic Interior Floor,                 !- Name
  ,                                       !- Surface Rendering Name
  {e23c2853-8e1b-4ee5-8649-1b3e9e07ff8c}, !- Layer 1
  {0282c18c-ae2a-4dd3-ae51-ee5d6b3e9eb0}, !- Layer 2
  {f9760dd9-87f3-4e9d-a758-fbf729c168df}; !- Layer 3

OS:DefaultConstructionSet,
  {e7a01ce4-1308-4209-b4b3-a56d361c602f}, !- Handle
  Default Generic Construction Set,       !- Name
  {77b017e1-91af-4319-b37a-85fa46e89fa0}, !- Default Exterior Surface Constructions Name
  {9d2e77ae-979c-4453-8b6c-efbe6b65119f}, !- Default Interior Surface Constructions Name
  {77b017e1-91af-4319-b37a-85fa46e89fa0}, !- Default Ground Contact Surface Constructions Name
  {55278a74-b7cb-4ce7-a402-a986180a50bb}, !- Default Exterior SubSurface Constructions Name
  {b4684b48-29d5-472c-b5fa-860a090118b5}, !- Default Interior SubSurface Constructions Name
  ,                                       !- Interior Partition Construction Name
  {dc3b1cea-cb2f-4f26-b0cb-578dc24acb84}, !- Space Shading Construction Name
  ,                                       !- Building Shading Construction Name
  ,                                       !- Site Shading Construction Name
  ;                                       !- Adiabatic Surface Construction Name

OS:DefaultSurfaceConstructions,
  {9d2e77ae-979c-4453-8b6c-efbe6b65119f}, !- Handle
  Default Surface Constructions 1,        !- Name
  {e884cd22-bbe7-42f2-bee9-b44d7f9f5ade}, !- Floor Construction Name
  {cdca439b-6ccd-4536-a0e3-b891bc238710}, !- Wall Construction Name
  {7fa0c414-d523-41e1-8edf-3f706abbc67f}; !- Roof Ceiling Construction Name

OS:DefaultSurfaceConstructions,
  {33339410-8e54-4ed3-84c3-d64a0c7932ab}, !- Handle
  Default Surface Constructions 2,        !- Name
  {89b56155-1510-4efb-8044-4ffd4b3a0296}, !- Floor Construction Name
  {7c14b5ca-db13-458c-998c-cf64cb89fe15}, !- Wall Construction Name
  {95b15536-5479-4eeb-8cb1-3b1fca6ec4e1}; !- Roof Ceiling Construction Name

OS:DefaultSurfaceConstructions,
  {77b017e1-91af-4319-b37a-85fa46e89fa0}, !- Handle
  Default Surface Constructions 3,        !- Name
  {d0bc9656-82e3-4975-a5ef-608e2e08dff2}, !- Floor Construction Name
  {0f6b09be-d7f7-4210-8ea8-e71b08f2c469}, !- Wall Construction Name
  {0cba7a40-f938-4a82-963b-fea753249d0d}; !- Roof Ceiling Construction Name

OS:DefaultSubSurfaceConstructions,
  {b4684b48-29d5-472c-b5fa-860a090118b5}, !- Handle
  Default Sub Surface Constructions 1,    !- Name
  ,                                       !- Fixed Window Construction Name
  {3c1894f1-cd74-4467-ac6e-efb308b3a3ba}, !- Operable Window Construction Name
  ,                                       !- Door Construction Name
  {3c1894f1-cd74-4467-ac6e-efb308b3a3ba}, !- Glass Door Construction Name
  {499f812b-512b-4966-a09b-4bf3629244ca}, !- Overhead Door Construction Name
  ,                                       !- Skylight Construction Name
  ,                                       !- Tubular Daylight Dome Construction Name
  ;                                       !- Tubular Daylight Diffuser Construction Name

OS:DefaultSubSurfaceConstructions,
  {55278a74-b7cb-4ce7-a402-a986180a50bb}, !- Handle
  Default Sub Surface Constructions 2,    !- Name
  {74a03c71-9584-48c7-96bc-8b0fc74fc09c}, !- Fixed Window Construction Name
  ,                                       !- Operable Window Construction Name
  {efc3e7f0-0013-4fc5-9233-8c116a927c8e}, !- Door Construction Name
  {74a03c71-9584-48c7-96bc-8b0fc74fc09c}, !- Glass Door Construction Name
  ,                                       !- Overhead Door Construction Name
  {74a03c71-9584-48c7-96bc-8b0fc74fc09c}, !- Skylight Construction Name
  ,                                       !- Tubular Daylight Dome Construction Name
  ;                                       !- Tubular Daylight Diffuser Construction Name

OS:DefaultConstructionSet,
  {87d539dc-3af8-4586-8623-9aa387bdd224}, !- Handle
  Attic Construction Set,                 !- Name
  ,                                       !- Default Exterior Surface Constructions Name
  {5f204480-84fb-48a1-82c1-3bbe75b7d9e0}, !- Default Interior Surface Constructions Name
  ,                                       !- Default Ground Contact Surface Constructions Name
  ,                                       !- Default Exterior SubSurface Constructions Name
  ,                                       !- Default Interior SubSurface Constructions Name
  ,                                       !- Interior Partition Construction Name
  ,                                       !- Space Shading Construction Name
  ,                                       !- Building Shading Construction Name
  ,                                       !- Site Shading Construction Name
  ;                                       !- Adiabatic Surface Construction Name

OS:DefaultSurfaceConstructions,
  {5f204480-84fb-48a1-82c1-3bbe75b7d9e0}, !- Handle
  Default Surface Constructions 4,        !- Name
  {6af02139-a93b-453f-b3e6-6c0f8f54564b}, !- Floor Construction Name
  ,                                       !- Wall Construction Name
  ;                                       !- Roof Ceiling Construction Name

OS:DefaultSurfaceConstructions,
  {28486f04-c348-40c8-b94c-d532f477b65b}, !- Handle
  Default Surface Constructions 5,        !- Name
  ,                                       !- Floor Construction Name
  ,                                       !- Wall Construction Name
  ;                                       !- Roof Ceiling Construction Name

OS:DefaultSurfaceConstructions,
  {0f3625a0-90f8-480d-a2e3-b48dc7e57ae9}, !- Handle
  Default Surface Constructions 6,        !- Name
  ,                                       !- Floor Construction Name
  ,                                       !- Wall Construction Name
  ;                                       !- Roof Ceiling Construction Name

OS:DefaultSubSurfaceConstructions,
  {e9e1c75f-7347-480f-925d-c959c25ccfb1}, !- Handle
  Default Sub Surface Constructions 3,    !- Name
  ,                                       !- Fixed Window Construction Name
  ,                                       !- Operable Window Construction Name
  ,                                       !- Door Construction Name
  ,                                       !- Glass Door Construction Name
  ,                                       !- Overhead Door Construction Name
  ,                                       !- Skylight Construction Name
  ,                                       !- Tubular Daylight Dome Construction Name
  ;                                       !- Tubular Daylight Diffuser Construction Name

OS:DefaultSubSurfaceConstructions,
  {0ce890b3-086e-4316-b7d8-d49326bb19b3}, !- Handle
  Default Sub Surface Constructions 4,    !- Name
  ,                                       !- Fixed Window Construction Name
  ,                                       !- Operable Window Construction Name
  ,                                       !- Door Construction Name
  ,                                       !- Glass Door Construction Name
  ,                                       !- Overhead Door Construction Name
  ,                                       !- Skylight Construction Name
  ,                                       !- Tubular Daylight Dome Construction Name
  ;                                       !- Tubular Daylight Diffuser Construction Name

OS:Building,
  {f7d9332d-1acd-4c27-9e5d-26fcadc22b06}, !- Handle
  Building 1,                             !- Name
  ,                                       !- Building Sector Type
  ,                                       !- North Axis {deg}
  ,                                       !- Nominal Floor to Floor Height {m}
  ,                                       !- Space Type Name
  {e7a01ce4-1308-4209-b4b3-a56d361c602f}, !- Default Construction Set Name
  ,                                       !- Default Schedule Set Name
  ,                                       !- Standards Number of Stories
  ,                                       !- Standards Number of Above Ground Stories
  90.1-2010,                              !- Standards Template
  Office;                                 !- Standards Building Type

OS:ScheduleTypeLimits,
  {b4e4662f-3ed3-464c-a029-a93f5378bd4c}, !- Handle
  Fractional,                             !- Name
  0,                                      !- Lower Limit Value
  1,                                      !- Upper Limit Value
  Continuous,                             !- Numeric Type
  Dimensionless;                          !- Unit Type

OS:ScheduleTypeLimits,
  {2d3c8e12-2a6f-48fc-afb0-d0192cdf5b5d}, !- Handle
  Temperature,                            !- Name
  -273.15,                                !- Lower Limit Value
  ,                                       !- Upper Limit Value
  Continuous,                             !- Numeric Type
  Temperature;                            !- Unit Type

OS:ScheduleTypeLimits,
  {3af987d3-bb65-46bf-8622-3a68a103e7db}, !- Handle
  Activity Level,                         !- Name
  0,                                      !- Lower Limit Value
  ,                                       !- Upper Limit Value
  Continuous,                             !- Numeric Type
  ActivityLevel;                          !- Unit Type

OS:Schedule:Ruleset,
  {78a7e76b-56f0-40e0-9ec1-39469b1c92f5}, !- Handle
  Generic Office Heating,                 !- Name
  {2d3c8e12-2a6f-48fc-afb0-d0192cdf5b5d}, !- Schedule Type Limits Name
  {69f8320e-b999-42f8-a383-042ca2f63270}, !- Default Day Schedule Name
  {4a8b52ea-6ea7-4999-b2a9-2e717185770f}, !- Summer Design Day Schedule Name
  {fee34308-8782-410d-8046-5eefbec783a0}; !- Winter Design Day Schedule Name

OS:Schedule:Day,
  {69f8320e-b999-42f8-a383-042ca2f63270}, !- Handle
  Schedule Day 1,                         !- Name
  {2d3c8e12-2a6f-48fc-afb0-d0192cdf5b5d}, !- Schedule Type Limits Name
  ,                                       !- Interpolate to Timestep
  24,                                     !- Hour 1
  0,                                      !- Minute 1
  0;                                      !- Value Until Time 1

OS:Schedule:Day,
  {16244062-b705-4f0d-b9b4-d6764b326be4}, !- Handle
  OfficeMedium HTGSETP_SCH_YES_OPTIMUM_Default_SmrDsn, !- Name
  ,                                       !- Schedule Type Limits Name
  ,                                       !- Interpolate to Timestep
  24,                                     !- Hour 1
  0,                                      !- Minute 1
  0;                                      !- Value Until Time 1

OS:Schedule:Day,
  {4a8b52ea-6ea7-4999-b2a9-2e717185770f}, !- Handle
  OfficeMedium HTGSETP_SCH_YES_OPTIMUM_Default_SmrDsn 1, !- Name
  {2d3c8e12-2a6f-48fc-afb0-d0192cdf5b5d}, !- Schedule Type Limits Name
  ,                                       !- Interpolate to Timestep
  24,                                     !- Hour 1
  0,                                      !- Minute 1
  0;                                      !- Value Until Time 1

OS:Schedule:Day,
  {8c6b6f5f-d784-451f-bd1c-a589a466d75f}, !- Handle
  OfficeMedium HTGSETP_SCH_YES_OPTIMUM_WntrDsn, !- Name
  ,                                       !- Schedule Type Limits Name
  ,                                       !- Interpolate to Timestep
  5,                                      !- Hour 1
  5,                                      !- Minute 1
  17.6,                                   !- Value Until Time 1
  6,                                      !- Hour 2
  6,                                      !- Minute 2
  19.6,                                   !- Value Until Time 2
  7,                                      !- Hour 3
  7,                                      !- Minute 3
  21,                                     !- Value Until Time 3
  22,                                     !- Hour 4
  22,                                     !- Minute 4
  15.6,                                   !- Value Until Time 4
  24,                                     !- Hour 5
  0,                                      !- Minute 5
  0;                                      !- Value Until Time 5

OS:Schedule:Day,
  {fee34308-8782-410d-8046-5eefbec783a0}, !- Handle
  OfficeMedium HTGSETP_SCH_YES_OPTIMUM_WntrDsn 1, !- Name
  {2d3c8e12-2a6f-48fc-afb0-d0192cdf5b5d}, !- Schedule Type Limits Name
  ,                                       !- Interpolate to Timestep
  5,                                      !- Hour 1
  5,                                      !- Minute 1
  17.6,                                   !- Value Until Time 1
  6,                                      !- Hour 2
  6,                                      !- Minute 2
  19.6,                                   !- Value Until Time 2
  7,                                      !- Hour 3
  7,                                      !- Minute 3
  21,                                     !- Value Until Time 3