
OS:Version,
  {be8f1425-282d-4322-b387-56745f9f0c48}, !- Handle
  2.9.0;                                  !- Version Identifier

OS:Material,
  {af99f1b0-5b17-4731-84be-3b37b2536425}, !- Handle
  Generic 50mm Insulation,                !- Name
  MediumRough,                            !- Roughness
  0.05,                                   !- Thickness {m}
  0.03,                                   !- Conductivity {W/m-K}
  43,                                     !- Density {kg/m3}
  1210,                                   !- Specific Heat {J/kg-K}
  0.9,                                    !- Thermal Absorptance
  0.7,                                    !- Solar Absorptance
  0.7;                                    !- Visible Absorptance

OS:Material,
  {4be0172c-2c75-4a82-9824-aeca77ff8cc4}, !- Handle
  Generic HW Concrete,                    !- Name
  MediumRough,                            !- Roughness
  0.2,                                    !- Thickness {m}
  1.95,                                   !- Conductivity {W/m-K}
  2240,                                   !- Density {kg/m3}
  900,                                    !- Specific Heat {J/kg-K}
  0.9,                                    !- Thermal Absorptance
  0.8,                                    !- Solar Absorptance
  0.8;                                    !- Visible Absorptance

OS:Material,
  {a2fd82ce-9b05-4b51-87a9-1bdff833d6af}, !- Handle
  Generic 25mm Wood,                      !- Name
  MediumSmooth,                           !- Roughness
  0.0254,                                 !- Thickness {m}
  0.15,                                   !- Conductivity {W/m-K}
  608,                                    !- Density {kg/m3}
  1630,                                   !- Specific Heat {J/kg-K}
  0.9,                                    !- Thermal Absorptance
  0.5,                                    !- Solar Absorptance
  0.5;                                    !- Visible Absorptance

OS:WindowMaterial:Glazing,
  {4164bcd1-bd8c-4e9f-81e9-f1c21ed40a43}, !- Handle
  Generic Low-e Glass,                    !- Name
  SpectralAverage,                        !- Optical Data Type
  ,                                       !- Window Glass Spectral Data Set Name
  0.006,                                  !- Thickness {m}
  0.45,                                   !- Solar Transmittance at Normal Incidence
  0.36,                                   !- Front Side Solar Reflectance at Normal Incidence
  0.36,                                   !- Back Side Solar Reflectance at Normal Incidence
  0.71,                                   !- Visible Transmittance at Normal Incidence
  0.21,                                   !- Front Side Visible Reflectance at Normal Incidence
  0.21,                                   !- Back Side Visible Reflectance at Normal Incidence
  0,                                      !- Infrared Transmittance at Normal Incidence
  0.84,                                   !- Front Side Infrared Hemispherical Emissivity
  0.047,                                  !- Back Side Infrared Hemispherical Emissivity
  1,                                      !- Conductivity {W/m-K}
  1,                                      !- Dirt Correction Factor for Solar and Visible Transmittance
  No;                                     !- Solar Diffusing

OS:Material,
  {341aa4c2-7464-44a8-bf9f-08345290c020}, !- Handle
  Thick Stone,                            !- Name
  Rough,                                  !- Roughness
  0.3,                                    !- Thickness {m}
  2.31,                                   !- Conductivity {W/m-K}
  2322,                                   !- Density {kg/m3}
  832,                                    !- Specific Heat {J/kg-K}
  0.95,                                   !- Thermal Absorptance
  0.75,                                   !- Solar Absorptance
  0.8;                                    !- Visible Absorptance

OS:Material,
  {bce69035-4766-4923-883f-3d09a395be43}, !- Handle
  Generic Ceiling Air Gap,                !- Name
  Smooth,                                 !- Roughness
  0.1,                                    !- Thickness {m}
  0.556,                                  !- Conductivity {W/m-K}
  1.28,                                   !- Density {kg/m3}
  1000,                                   !- Specific Heat {J/kg-K}
  0.9,                                    !- Thermal Absorptance
  0.7,                                    !- Solar Absorptance
  0.7;                                    !- Visible Absorptance

OS:WindowMaterial:Glazing,
  {fdc4d046-f683-4c0e-ba65-aa7c7b836042}, !- Handle
  Generic Clear Glass,                    !- Name
  SpectralAverage,                        !- Optical Data Type
  ,                                       !- Window Glass Spectral Data Set Name
  0.006,                                  !- Thickness {m}
  0.77,                                   !- Solar Transmittance at Normal Incidence
  0.07,                                   !- Front Side Solar Reflectance at Normal Incidence
  0.07,                                   !- Back Side Solar Reflectance at Normal Incidence
  0.88,                                   !- Visible Transmittance at Normal Incidence
  0.08,                                   !- Front Side Visible Reflectance at Normal Incidence
  0.08,                                   !- Back Side Visible Reflectance at Normal Incidence
  0,                                      !- Infrared Transmittance at Normal Incidence
  0.84,                                   !- Front Side Infrared Hemispherical Emissivity
  0.84,                                   !- Back Side Infrared Hemispherical Emissivity
  1,                                      !- Conductivity {W/m-K}
  1,                                      !- Dirt Correction Factor for Solar and Visible Transmittance
  No;                                     !- Solar Diffusing

OS:Material,
  {ab16a105-88d5-4e96-845e-80a3a0689f09}, !- Handle
  Generic LW Concrete,                    !- Name
  MediumRough,                            !- Roughness
  0.1,                                    !- Thickness {m}
  0.53,                                   !- Conductivity {W/m-K}
  1280,                                   !- Density {kg/m3}
  840,                                    !- Specific Heat {J/kg-K}
  0.9,                                    !- Thermal Absorptance
  0.8,                                    !- Solar Absorptance
  0.8;                                    !- Visible Absorptance

OS:Material,
  {e968c048-4231-497f-b3cb-3100d969904b}, !- Handle
  Generic 25mm Insulation,                !- Name
  MediumRough,                            !- Roughness
  0.05,                                   !- Thickness {m}
  0.03,                                   !- Conductivity {W/m-K}
  43,                                     !- Density {kg/m3}
  1210,                                   !- Specific Heat {J/kg-K}
  0.9,                                    !- Thermal Absorptance
  0.7,                                    !- Solar Absorptance
  0.7;                                    !- Visible Absorptance

OS:Material,
  {d1287277-d176-4c1e-bf0e-d16039391b07}, !- Handle
  Generic Brick,                          !- Name
  MediumRough,                            !- Roughness
  0.1,                                    !- Thickness {m}
  0.9,                                    !- Conductivity {W/m-K}
  1920,                                   !- Density {kg/m3}
  790,                                    !- Specific Heat {J/kg-K}
  0.9,                                    !- Thermal Absorptance
  0.65,                                   !- Solar Absorptance
  0.65;                                   !- Visible Absorptance

OS:Material,
  {cc999916-bed0-4c9c-9af7-1629374979cb}, !- Handle
  Generic Acoustic Tile,                  !- Name
  MediumSmooth,                           !- Roughness
  0.02,                                   !- Thickness {m}
  0.06,                                   !- Conductivity {W/m-K}
  368,                                    !- Density {kg/m3}
  590,                                    !- Specific Heat {J/kg-K}
  0.9,                                    !- Thermal Absorptance
  0.2,                                    !- Solar Absorptance
  0.2;                                    !- Visible Absorptance

OS:Material,
  {4b988cdb-84a9-419f-8818-3b1e7e82608f}, !- Handle
  Generic Gypsum Board,                   !- Name
  MediumSmooth,                           !- Roughness
  0.0127,                                 !- Thickness {m}
  0.16,                                   !- Conductivity {W/m-K}
  800,                                    !- Density {kg/m3}
  1090,                                   !- Specific Heat {J/kg-K}
  0.9,                                    !- Thermal Absorptance
  0.5,                                    !- Solar Absorptance
  0.5;                                    !- Visible Absorptance

OS:WindowMaterial:Gas,
  {90bf940e-62f4-4f37-b812-f4af77eacc4c}, !- Handle
  Generic Window Air Gap,                 !- Name
  Air,                                    !- Gas Type
  0.0127;                                 !- Thickness {m}

OS:Material,
  {b6ed97c4-f45e-42f2-b557-5f146f18d2dc}, !- Handle
  Generic Painted Metal,                  !- Name
  Smooth,                                 !- Roughness
  0.0015,                                 !- Thickness {m}
  45,                                     !- Conductivity {W/m-K}
  7690,                                   !- Density {kg/m3}
  410,                                    !- Specific Heat {J/kg-K}
  0.9,                                    !- Thermal Absorptance
  0.5,                                    !- Solar Absorptance
  0.5;                                    !- Visible Absorptance

OS:Material,
  {6b2c95fc-b80a-48ca-97e2-7c4515b0eb6f}, !- Handle
  Generic Wall Air Gap,                   !- Name
  Smooth,                                 !- Roughness
  0.1,                                    !- Thickness {m}
  0.667,                                  !- Conductivity {W/m-K}
  1.28,                                   !- Density {kg/m3}
  1000,                                   !- Specific Heat {J/kg-K}
  0.9,                                    !- Thermal Absorptance
  0.7,                                    !- Solar Absorptance
  0.7;                                    !- Visible Absorptance

OS:Material,
  {623e72ad-3756-4afe-92b9-bd907779a8ed}, !- Handle
  Generic Roof Membrane,                  !- Name
  MediumRough,                            !- Roughness
  0.01,                                   !- Thickness {m}
  0.16,                                   !- Conductivity {W/m-K}
  1120,                                   !- Density {kg/m3}
  1460,                                   !- Specific Heat {J/kg-K}
  0.9,                                    !- Thermal Absorptance
  0.65,                                   !- Solar Absorptance
  0.65;                                   !- Visible Absorptance

OS:Construction,
  {32dd1b68-415d-488e-aa10-617af076c1e6}, !- Handle
  Generic Interior Ceiling,               !- Name
  ,                                       !- Surface Rendering Name
  {ab16a105-88d5-4e96-845e-80a3a0689f09}, !- Layer 1
  {bce69035-4766-4923-883f-3d09a395be43}, !- Layer 2
  {cc999916-bed0-4c9c-9af7-1629374979cb}; !- Layer 3

OS:Construction,
  {b18953f7-f621-4b62-b036-baaaaf6dca9d}, !- Handle
  Generic Ground Slab,                    !- Name
  ,                                       !- Surface Rendering Name
  {af99f1b0-5b17-4731-84be-3b37b2536425}, !- Layer 1
  {4be0172c-2c75-4a82-9824-aeca77ff8cc4}; !- Layer 2

OS:Construction,
  {56509480-b358-4fbc-bcda-e731014e0501}, !- Handle
  Generic Shade,                          !- Name
  ,                                       !- Surface Rendering Name
  {d0b61e91-1a8b-44fa-b459-4d2cecb93975}; !- Layer 1

OS:Material,
  {d0b61e91-1a8b-44fa-b459-4d2cecb93975}, !- Handle
  Material 1,                             !- Name
  Smooth,                                 !- Roughness
  0.1,                                    !- Thickness {m}
  0.1,                                    !- Conductivity {W/m-K}
  0.1,                                    !- Density {kg/m3}
  0.1,                                    !- Specific Heat {J/kg-K}
  ,                                       !- Thermal Absorptance
  0.65,                                   !- Solar Absorptance
  0.65;                                   !- Visible Absorptance

OS:Construction,
  {d6def24a-f5ce-4eb6-9829-60eb7fb35896}, !- Handle
  Thermal Mass Floor,                     !- Name
  ,                                       !- Surface Rendering Name
  {341aa4c2-7464-44a8-bf9f-08345290c020}; !- Layer 1

OS:Construction,
  {eff5260a-0d51-4521-9e0a-15f02194551c}, !- Handle
  Generic Roof,                           !- Name
  ,                                       !- Surface Rendering Name
  {623e72ad-3756-4afe-92b9-bd907779a8ed}, !- Layer 1
  {af99f1b0-5b17-4731-84be-3b37b2536425}, !- Layer 2
  {ab16a105-88d5-4e96-845e-80a3a0689f09}, !- Layer 3
  {bce69035-4766-4923-883f-3d09a395be43}, !- Layer 4
  {cc999916-bed0-4c9c-9af7-1629374979cb}; !- Layer 5

OS:Construction,
  {3e5c9fd5-fab2-419e-8a4f-60c13abe0ab0}, !- Handle
  Generic Interior Floor,                 !- Name
  ,                                       !- Surface Rendering Name
  {cc999916-bed0-4c9c-9af7-1629374979cb}, !- Layer 1
  {bce69035-4766-4923-883f-3d09a395be43}, !- Layer 2
  {ab16a105-88d5-4e96-845e-80a3a0689f09}; !- Layer 3

OS:Construction,
  {56ef45c6-791d-4216-bbbf-7ce6b6de246d}, !- Handle
  Generic Interior Door,                  !- Name
  ,                                       !- Surface Rendering Name
  {a2fd82ce-9b05-4b51-87a9-1bdff833d6af}; !- Layer 1

OS:Construction,
  {448b3370-aaf1-43a9-80af-57e9b61ad312}, !- Handle
  Generic Exterior Wall,                  !- Name
  ,                                       !- Surface Rendering Name
  {d1287277-d176-4c1e-bf0e-d16039391b07}, !- Layer 1
  {ab16a105-88d5-4e96-845e-80a3a0689f09}, !- Layer 2
  {af99f1b0-5b17-4731-84be-3b37b2536425}, !- Layer 3
  {6b2c95fc-b80a-48ca-97e2-7c4515b0eb6f}, !- Layer 4
  {4b988cdb-84a9-419f-8818-3b1e7e82608f}; !- Layer 5

OS:Construction,
  {0538d837-faff-47b1-bbaf-79bfe8fce073}, !- Handle
  Outdoor Light Shelf,                    !- Name
  ,                                       !- Surface Rendering Name
  {ca0542a8-d36a-4279-ae09-ebad4fdfde6a}; !- Layer 1

OS:Material,
  {ca0542a8-d36a-4279-ae09-ebad4fdfde6a}, !- Handle
  Material 2,                             !- Name
  Smooth,                                 !- Roughness
  0.1,                                    !- Thickness {m}
  0.1,                                    !- Conductivity {W/m-K}
  0.1,                                    !- Density {kg/m3}
  0.1,                                    !- Specific Heat {J/kg-K}
  ,                                       !- Thermal Absorptance
  0.5,                                    !- Solar Absorptance
  0.5;                                    !- Visible Absorptance

OS:Construction,
  {e7450d51-bdb3-425b-9209-64d3652ff2c9}, !- Handle
  Generic Underground Wall,               !- Name
  ,                                       !- Surface Rendering Name
  {af99f1b0-5b17-4731-84be-3b37b2536425}, !- Layer 1
  {4be0172c-2c75-4a82-9824-aeca77ff8cc4}, !- Layer 2
  {6b2c95fc-b80a-48ca-97e2-7c4515b0eb6f}, !- Layer 3
  {4b988cdb-84a9-419f-8818-3b1e7e82608f}; !- Layer 4

OS:Construction,
  {a9620343-6308-4a74-a84d-fd7e3952fc89}, !- Handle
  Triple Pane Window,                     !- Name
  ,                                       !- Surface Rendering Name
  {fdc4d046-f683-4c0e-ba65-aa7c7b836042}, !- Layer 1
  {90bf940e-62f4-4f37-b812-f4af77eacc4c}, !- Layer 2
  {fdc4d046-f683-4c0e-ba65-aa7c7b836042}, !- Layer 3
  {90bf940e-62f4-4f37-b812-f4af77eacc4c}, !- Layer 4
  {fdc4d046-f683-4c0e-ba65-aa7c7b836042}; !- Layer 5

OS:Construction,
  {a1455795-5bda-4b07-adbb-9ba1be16093a}, !- Handle
  Generic Interior Wall,                  !- Name
  ,                                       !- Surface Rendering Name
  {4b988cdb-84a9-419f-8818-3b1e7e82608f}, !- Layer 1
  {6b2c95fc-b80a-48ca-97e2-7c4515b0eb6f}, !- Layer 2
  {4b988cdb-84a9-419f-8818-3b1e7e82608f}; !- Layer 3

OS:Construction,
  {e1bd6c96-3c26-4ac7-82b4-679f3e50420f}, !- Handle
  Generic Exposed Floor,                  !- Name
  ,                                       !- Surface Rendering Name
  {b6ed97c4-f45e-42f2-b557-5f146f18d2dc}, !- Layer 1
  {bce69035-4766-4923-883f-3d09a395be43}, !- Layer 2
  {af99f1b0-5b17-4731-84be-3b37b2536425}, !- Layer 3
  {ab16a105-88d5-4e96-845e-80a3a0689f09}; !- Layer 4

OS:Construction,
  {40917afd-4555-421e-aba6-72f3a964f18f}, !- Handle
  Generic Double Pane,                    !- Name
  ,                                       !- Surface Rendering Name
  {4164bcd1-bd8c-4e9f-81e9-f1c21ed40a43}, !- Layer 1
  {90bf940e-62f4-4f37-b812-f4af77eacc4c}, !- Layer 2
  {fdc4d046-f683-4c0e-ba65-aa7c7b836042}; !- Layer 3

OS:Construction,
  {435489f0-386f-4717-9573-63be9bff6814}, !- Handle
  Generic Underground Roof,               !- Name
  ,                                       !- Surface Rendering Name
  {af99f1b0-5b17-4731-84be-3b37b2536425}, !- Layer 1
  {4be0172c-2c75-4a82-9824-aeca77ff8cc4}, !- Layer 2
  {bce69035-4766-4923-883f-3d09a395be43}, !- Layer 3
  {cc999916-bed0-4c9c-9af7-1629374979cb}; !- Layer 4

OS:Construction,
  {99b342c1-9ee6-4ece-aa0a-e039fff0fe4c}, !- Handle
  Generic Single Pane,                    !- Name
  ,                                       !- Surface Rendering Name
  {fdc4d046-f683-4c0e-ba65-aa7c7b836042}; !- Layer 1

OS:Construction,
  {351c7452-9baa-4512-9d86-ef4895340c19}, !- Handle
  Generic Exterior Door,                  !- Name
  ,                                       !- Surface Rendering Name
  {b6ed97c4-f45e-42f2-b557-5f146f18d2dc}, !- Layer 1
  {e968c048-4231-497f-b3cb-3100d969904b}, !- Layer 2
  {b6ed97c4-f45e-42f2-b557-5f146f18d2dc}; !- Layer 3

OS:Construction,
  {eb9e5958-f07a-4e88-97c8-6e51fc84422a}, !- Handle
  Indoor Light Shelf,                     !- Name
  ,                                       !- Surface Rendering Name
  {c5f125a3-e78a-45fb-9217-be287aba391e}; !- Layer 1

OS:Material,
  {c5f125a3-e78a-45fb-9217-be287aba391e}, !- Handle
  Material 3,                             !- Name
  Smooth,                                 !- Roughness
  0.1,                                    !- Thickness {m}
  0.1,                                    !- Conductivity {W/m-K}
  0.1,                                    !- Density {kg/m3}
  0.1,                                    !- Specific Heat {J/kg-K}
  ,                                       !- Thermal Absorptance
  0.3,                                    !- Solar Absorptance
  0.3;                                    !- Visible Absorptance

OS:DefaultConstructionSet,
  {ee7e6375-d049-469f-bdb7-9c0abb9eb316}, !- Handle
  Default Generic Construction Set,       !- Name
  {91990aec-757a-4aaf-ad98-46e3b06660df}, !- Default Exterior Surface Constructions Name
  {e23eddc2-209b-4e49-a192-105d2a36d445}, !- Default Interior Surface Constructions Name
  {91990aec-757a-4aaf-ad98-46e3b06660df}, !- Default Ground Contact Surface Constructions Name
  {88a085ef-cbe2-4ce1-ae62-7e96be0d3540}, !- Default Exterior SubSurface Constructions Name
  {fae25652-3f3a-4187-9b63-b85623e344e1}, !- Default Interior SubSurface Constructions Name
  ,                                       !- Interior Partition Construction Name
  {56509480-b358-4fbc-bcda-e731014e0501}, !- Space Shading Construction Name
  ,                                       !- Building Shading Construction Name
  ,                                       !- Site Shading Construction Name
  ;                                       !- Adiabatic Surface Construction Name

OS:DefaultSurfaceConstructions,
  {e23eddc2-209b-4e49-a192-105d2a36d445}, !- Handle
  Default Surface Constructions 1,        !- Name
  {3e5c9fd5-fab2-419e-8a4f-60c13abe0ab0}, !- Floor Construction Name
  {a1455795-5bda-4b07-adbb-9ba1be16093a}, !- Wall Construction Name
  {32dd1b68-415d-488e-aa10-617af076c1e6}; !- Roof Ceiling Construction Name

OS:DefaultSurfaceConstructions,
  {9c66c803-582f-4780-8b18-a3cf8e2640f1}, !- Handle
  Default Surface Constructions 2,        !- Name
  {e1bd6c96-3c26-4ac7-82b4-679f3e50420f}, !- Floor Construction Name
  {448b3370-aaf1-43a9-80af-57e9b61ad312}, !- Wall Construction Name
  {eff5260a-0d51-4521-9e0a-15f02194551c}; !- Roof Ceiling Construction Name

OS:DefaultSurfaceConstructions,
  {91990aec-757a-4aaf-ad98-46e3b06660df}, !- Handle
  Default Surface Constructions 3,        !- Name
  {b18953f7-f621-4b62-b036-baaaaf6dca9d}, !- Floor Construction Name
  {e7450d51-bdb3-425b-9209-64d3652ff2c9}, !- Wall Construction Name
  {435489f0-386f-4717-9573-63be9bff6814}; !- Roof Ceiling Construction Name

OS:DefaultSubSurfaceConstructions,
  {fae25652-3f3a-4187-9b63-b85623e344e1}, !- Handle
  Default Sub Surface Constructions 1,    !- Name
  ,                                       !- Fixed Window Construction Name
  {99b342c1-9ee6-4ece-aa0a-e039fff0fe4c}, !- Operable Window Construction Name
  ,                                       !- Door Construction Name
  {99b342c1-9ee6-4ece-aa0a-e039fff0fe4c}, !- Glass Door Construction Name
  {56ef45c6-791d-4216-bbbf-7ce6b6de246d}, !- Overhead Door Construction Name
  ,                                       !- Skylight Construction Name
  ,                                       !- Tubular Daylight Dome Construction Name
  ;                                       !- Tubular Daylight Diffuser Construction Name

OS:DefaultSubSurfaceConstructions,
  {88a085ef-cbe2-4ce1-ae62-7e96be0d3540}, !- Handle
  Default Sub Surface Constructions 2,    !- Name
  {40917afd-4555-421e-aba6-72f3a964f18f}, !- Fixed Window Construction Name
  ,                                       !- Operable Window Construction Name
  {351c7452-9baa-4512-9d86-ef4895340c19}, !- Door Construction Name
  {40917afd-4555-421e-aba6-72f3a964f18f}, !- Glass Door Construction Name
  ,                                       !- Overhead Door Construction Name
  {40917afd-4555-421e-aba6-72f3a964f18f}, !- Skylight Construction Name
  ,                                       !- Tubular Daylight Dome Construction Name
  ;                                       !- Tubular Daylight Diffuser Construction Name

OS:Building,
  {ec1e9487-c52e-464f-9a86-eeb06147d7d8}, !- Handle
  Building 1,                             !- Name
  ,                                       !- Building Sector Type
  ,                                       !- North Axis {deg}
  ,                                       !- Nominal Floor to Floor Height {m}
  ,                                       !- Space Type Name
  {ee7e6375-d049-469f-bdb7-9c0abb9eb316}, !- Default Construction Set Name
  ,                                       !- Default Schedule Set Name
  ,                                       !- Standards Number of Stories
  ,                                       !- Standards Number of Above Ground Stories
  90.1-2010,                              !- Standards Template
  MidriseApartment;                       !- Standards Building Type

OS:Space,
  {903413c7-3464-4ed1-9703-9b72233e2193}, !- Handle
  TinyHouseZone,                          !- Name
  ,                                       !- Space Type Name
  ,                                       !- Default Construction Set Name
  ,                                       !- Default Schedule Set Name
  ,                                       !- Direction of Relative North {deg}
  ,                                       !- X Origin {m}
  ,                                       !- Y Origin {m}
  ,                                       !- Z Origin {m}
  ,                                       !- Building Story Name
  {436fde64-6609-4a22-9368-2f2b70e2d57b}; !- Thermal Zone Name

OS:Surface,
  {f872dbfe-af3a-4c67-8493-7fcc75de5034}, !- Handle
  TinyHouseZone_Bottom,                   !- Name
  Floor,                                  !- Surface Type
  {d6def24a-f5ce-4eb6-9829-60eb7fb35896}, !- Construction Name
  {903413c7-3464-4ed1-9703-9b72233e2193}, !- Space Name
  Ground,                                 !- Outside Boundary Condition
  ,                                       !- Outside Boundary Condition Object
  NoSun,                                  !- Sun Exposure
  NoWind,                                 !- Wind Exposure
  ,                                       !- View Factor to Ground
  ,                                       !- Number of Vertices
  0, 0, 0,                                !- X,Y,Z Vertex 1 {m}
  0, 10, 0,                               !- X,Y,Z Vertex 2 {m}
  5, 10, 0,                               !- X,Y,Z Vertex 3 {m}
  5, 0, 0;                                !- X,Y,Z Vertex 4 {m}

OS:ShadingSurfaceGroup,
  {27f23e89-bebd-40e0-95ee-38ac689bb80c}, !- Handle
  Shading Surface Group 1,                !- Name
  Building;                               !- Shading Surface Type

OS:Surface,
  {03109adf-847b-4ae8-a333-ea53228da265}, !- Handle
  TinyHouseZone_Front,                    !- Name
  Wall,                                   !- Surface Type
  ,                                       !- Construction Name
  {903413c7-3464-4ed1-9703-9b72233e2193}, !- Space Name
  Outdoors,                               !- Outside Boundary Condition
  ,                                       !- Outside Boundary Condition Object
  SunExposed,                             !- Sun Exposure
  WindExposed,                            !- Wind Exposure
  Autocalculate,                          !- View Factor to Ground
  ,                                       !- Number of Vertices
  5, 10, 3,                               !- X,Y,Z Vertex 1 {m}
  5, 10, 0,                               !- X,Y,Z Vertex 2 {m}
  0, 10, 0,                               !- X,Y,Z Vertex 3 {m}
  0, 10, 3;                               !- X,Y,Z Vertex 4 {m}

OS:SubSurface,
  {19e48ca3-4e15-478a-a478-2eb3ca489dfa}, !- Handle
  FrontAperture,                          !- Name
  FixedWindow,                            !- Sub Surface Type
  {a9620343-6308-4a74-a84d-fd7e3952fc89}, !- Construction Name
  {03109adf-847b-4ae8-a333-ea53228da265}, !- Surface Name
  ,                                       !- Outside Boundary Condition Object
  ,                                       !- View Factor to Ground
  ,                                       !- Shading Control Name
  ,                                       !- Frame and Divider Name
  ,                                       !- Multiplier
  ,                                       !- Number of Vertices
  4.5, 10, 2.5,                           !- X,Y,Z Vertex 1 {m}
  4.5, 10, 1,                             !- X,Y,Z Vertex 2 {m}
  2.5, 10, 1,                             !- X,Y,Z Vertex 3 {m}
  2.5, 10, 2.5;                           !- X,Y,Z Vertex 4 {m}

OS:ShadingSurfaceGroup,
  {7c544b4a-3618-4995-98ac-2ee6a832c99f}, !- Handle
  Shading Surface Group 2,                !- Name
  Building;                               !- Shading Surface Type

OS:SubSurface,
  {9b579416-1473-42f1-b4cd-aa88c7cb583d}, !- Handle
  FrontDoor,                              !- Name
  FixedWindow,                            !- Sub Surface Type
  ,                                       !- Construction Name
  {03109adf-847b-4ae8-a333-ea53228da265}, !- Surface Name
  ,                                       !- Outside Boundary Condition Object
  ,                                       !- View Factor to Ground
  ,                                       !- Shading Control Name
  ,                                       !- Frame and Divider Name
  ,                                       !- Multiplier
  ,                                       !- Number of Vertices
  2, 10, 2.5,                             !- X,Y,Z Vertex 1 {m}
  2, 10, 0.1,                             !- X,Y,Z Vertex 2 {m}
  1, 10, 0.1,                             !- X,Y,Z Vertex 3 {m}
  1, 10, 2.5;                             !- X,Y,Z Vertex 4 {m}

OS:ShadingSurfaceGroup,
  {8d5cdc8f-c1a9-4bb1-a933-888f3ee191d9}, !- Handle
  Shading Surface Group 3,                !- Name
  Building;                               !- Shading Surface Type

OS:ShadingSurface,
  {323165ac-ea00-4001-b6a0-94ca18e310f3}, !- Handle
  TinyHouseZone_Front_OutOverhang0,       !- Name
  ,                                       !- Construction Name
  {8d5cdc8f-c1a9-4bb1-a933-888f3ee191d9}, !- Shading Surface Group Name
  ,                                       !- Transmittance Schedule Name
  ,                                       !- Number of Vertices
  0, 10, 2.9999999,                       !- X,Y,Z Vertex 1 {m}
  5, 10, 2.9999999,                       !- X,Y,Z Vertex 2 {m}
  5, 10.25, 2.9999999,                    !- X,Y,Z Vertex 3 {m}
  0, 10.25, 2.9999999;                    !- X,Y,Z Vertex 4 {m}

OS:Surface,
  {7c85962f-15be-4476-942c-c99748564ca0}, !- Handle
  TinyHouseZone_Right,                    !- Name
  Wall,                                   !- Surface Type
  ,                                       !- Construction Name
  {903413c7-3464-4ed1-9703-9b72233e2193}, !- Space Name
  Outdoors,                               !- Outside Boundary Condition
  ,                                       !- Outside Boundary Condition Object
  SunExposed,                             !- Sun Exposure
  WindExposed,                            !- Wind Exposure
  Autocalculate,                          !- View Factor to Ground
  ,                                       !- Number of Vertices
  5, 0, 3,                                !- X,Y,Z Vertex 1 {m}
  5, 0, 0,                                !- X,Y,Z Vertex 2 {m}