
OS:Version,
  {8ea017c3-7043-4cca-919b-f191cde05ca8}, !- Handle
  2.8.1;                                  !- Version Identifier

OS:Material,
  {6850f0d9-310a-4bce-a8ca-60db1cf807d6}, !- Handle
  PolyIso,                                !- Name
  MediumRough,                            !- Roughness
  0.2,                                    !- Thickness {m}
  0.03,                                   !- Conductivity {W/m-K}
  43,                                     !- Density {kg/m3}
  1210,                                   !- Specific Heat {J/kg-K}
  0.9,                                    !- Thermal Absorptance
  0.7,                                    !- Solar Absorptance
  0.7;                                    !- Visible Absorptance

OS:Material,
  {fd92f674-e96c-489c-8f08-a0098bc5d496}, !- Handle
  Generic 50mm Insulation,                !- Name
  MediumRough,                            !- Roughness
  0.05,                                   !- Thickness {m}
  0.03,                                   !- Conductivity {W/m-K}
  43,                                     !- Density {kg/m3}
  1210,                                   !- Specific Heat {J/kg-K}
  0.9,                                    !- Thermal Absorptance
  0.7,                                    !- Solar Absorptance
  0.7;                                    !- Visible Absorptance

OS:Material,
  {9beff4b2-7617-44ad-a178-0bebe83f1885}, !- Handle
  Generic HW Concrete,                    !- Name
  MediumRough,                            !- Roughness
  0.2,                                    !- Thickness {m}
  1.95,                                   !- Conductivity {W/m-K}
  2240,                                   !- Density {kg/m3}
  900,                                    !- Specific Heat {J/kg-K}
  0.9,                                    !- Thermal Absorptance
  0.8,                                    !- Solar Absorptance
  0.8;                                    !- Visible Absorptance

OS:Material,
  {53291e54-6365-49c8-8723-8202d63c9301}, !- Handle
  Generic 25mm Wood,                      !- Name
  MediumSmooth,                           !- Roughness
  0.0254,                                 !- Thickness {m}
  0.15,                                   !- Conductivity {W/m-K}
  608,                                    !- Density {kg/m3}
  1630,                                   !- Specific Heat {J/kg-K}
  0.9,                                    !- Thermal Absorptance
  0.5,                                    !- Solar Absorptance
  0.5;                                    !- Visible Absorptance

OS:WindowMaterial:Glazing,
  {26723659-9a09-495b-9c25-62be10c04b9b}, !- Handle
  Generic Low-e Glass,                    !- Name
  SpectralAverage,                        !- Optical Data Type
  ,                                       !- Window Glass Spectral Data Set Name
  0.006,                                  !- Thickness {m}
  0.45,                                   !- Solar Transmittance at Normal Incidence
  0.36,                                   !- Front Side Solar Reflectance at Normal Incidence
  0.36,                                   !- Back Side Solar Reflectance at Normal Incidence
  0.71,                                   !- Visible Transmittance at Normal Incidence
  0.21,                                   !- Front Side Visible Reflectance at Normal Incidence
  0.21,                                   !- Back Side Visible Reflectance at Normal Incidence
  0,                                      !- Infrared Transmittance at Normal Incidence
  0.84,                                   !- Front Side Infrared Hemispherical Emissivity
  0.047,                                  !- Back Side Infrared Hemispherical Emissivity
  1,                                      !- Conductivity {W/m-K}
  1,                                      !- Dirt Correction Factor for Solar and Visible Transmittance
  No;                                     !- Solar Diffusing

OS:Material,
  {2676817d-0203-421a-8e9a-ee832e63655a}, !- Handle
  Generic Ceiling Air Gap,                !- Name
  Smooth,                                 !- Roughness
  0.1,                                    !- Thickness {m}
  0.556,                                  !- Conductivity {W/m-K}
  1.28,                                   !- Density {kg/m3}
  1000,                                   !- Specific Heat {J/kg-K}
  0.9,                                    !- Thermal Absorptance
  0.7,                                    !- Solar Absorptance
  0.7;                                    !- Visible Absorptance

OS:WindowMaterial:Glazing,
  {1093e989-42f8-4f4c-8bdc-f89ce1158490}, !- Handle
  Generic Clear Glass,                    !- Name
  SpectralAverage,                        !- Optical Data Type
  ,                                       !- Window Glass Spectral Data Set Name
  0.006,                                  !- Thickness {m}
  0.77,                                   !- Solar Transmittance at Normal Incidence
  0.07,                                   !- Front Side Solar Reflectance at Normal Incidence
  0.07,                                   !- Back Side Solar Reflectance at Normal Incidence
  0.88,                                   !- Visible Transmittance at Normal Incidence
  0.08,                                   !- Front Side Visible Reflectance at Normal Incidence
  0.08,                                   !- Back Side Visible Reflectance at Normal Incidence
  0,                                      !- Infrared Transmittance at Normal Incidence
  0.84,                                   !- Front Side Infrared Hemispherical Emissivity
  0.84,                                   !- Back Side Infrared Hemispherical Emissivity
  1,                                      !- Conductivity {W/m-K}
  1,                                      !- Dirt Correction Factor for Solar and Visible Transmittance
  No;                                     !- Solar Diffusing

OS:Material,
  {fdbce1c5-f42a-4577-95c2-9ca478d2eb95}, !- Handle
  Generic LW Concrete,                    !- Name
  MediumRough,                            !- Roughness
  0.1,                                    !- Thickness {m}
  0.53,                                   !- Conductivity {W/m-K}
  1280,                                   !- Density {kg/m3}
  840,                                    !- Specific Heat {J/kg-K}
  0.9,                                    !- Thermal Absorptance
  0.8,                                    !- Solar Absorptance
  0.8;                                    !- Visible Absorptance

OS:Material,
  {e91f169a-96be-4b26-878e-2120cf618731}, !- Handle
  Generic 25mm Insulation,                !- Name
  MediumRough,                            !- Roughness
  0.05,                                   !- Thickness {m}
  0.03,                                   !- Conductivity {W/m-K}
  43,                                     !- Density {kg/m3}
  1210,                                   !- Specific Heat {J/kg-K}
  0.9,                                    !- Thermal Absorptance
  0.7,                                    !- Solar Absorptance
  0.7;                                    !- Visible Absorptance

OS:Material,
  {10682d33-6529-492d-b5b7-5ca983ecee0d}, !- Handle
  Generic Brick,                          !- Name
  MediumRough,                            !- Roughness
  0.1,                                    !- Thickness {m}
  0.9,                                    !- Conductivity {W/m-K}
  1920,                                   !- Density {kg/m3}
  790,                                    !- Specific Heat {J/kg-K}
  0.9,                                    !- Thermal Absorptance
  0.65,                                   !- Solar Absorptance
  0.65;                                   !- Visible Absorptance

OS:Material,
  {ae7939d5-b457-4ccc-b854-a22fe47dac24}, !- Handle
  Generic Acoustic Tile,                  !- Name
  MediumSmooth,                           !- Roughness
  0.02,                                   !- Thickness {m}
  0.06,                                   !- Conductivity {W/m-K}
  368,                                    !- Density {kg/m3}
  590,                                    !- Specific Heat {J/kg-K}
  0.9,                                    !- Thermal Absorptance
  0.2,                                    !- Solar Absorptance
  0.2;                                    !- Visible Absorptance

OS:Material,
  {3aca2d7f-f8e9-4f5f-a985-7023721820ff}, !- Handle
  Generic Gypsum Board,                   !- Name
  MediumSmooth,                           !- Roughness
  0.0127,                                 !- Thickness {m}
  0.16,                                   !- Conductivity {W/m-K}
  800,                                    !- Density {kg/m3}
  1090,                                   !- Specific Heat {J/kg-K}
  0.9,                                    !- Thermal Absorptance
  0.5,                                    !- Solar Absorptance
  0.5;                                    !- Visible Absorptance

OS:WindowMaterial:Gas,
  {425d3f9f-61ad-4f3b-9121-5b478cbb5e75}, !- Handle
  Generic Window Air Gap,                 !- Name
  Air,                                    !- Gas Type
  0.0127;                                 !- Thickness {m}

OS:Material,
  {909b97c6-d820-4a5d-91fc-9bb090aaec9c}, !- Handle
  Generic Painted Metal,                  !- Name
  Smooth,                                 !- Roughness
  0.0015,                                 !- Thickness {m}
  45,                                     !- Conductivity {W/m-K}
  7690,                                   !- Density {kg/m3}
  410,                                    !- Specific Heat {J/kg-K}
  0.9,                                    !- Thermal Absorptance
  0.5,                                    !- Solar Absorptance
  0.5;                                    !- Visible Absorptance

OS:Material,
  {986dd5eb-ed30-45fb-8387-e3c4a2d9c80e}, !- Handle
  Generic Wall Air Gap,                   !- Name
  Smooth,                                 !- Roughness
  0.1,                                    !- Thickness {m}
  0.667,                                  !- Conductivity {W/m-K}
  1.28,                                   !- Density {kg/m3}
  1000,                                   !- Specific Heat {J/kg-K}
  0.9,                                    !- Thermal Absorptance
  0.7,                                    !- Solar Absorptance
  0.7;                                    !- Visible Absorptance

OS:Material,
  {86598a60-5b96-44fd-bbc3-64ab4edc39eb}, !- Handle
  Generic Roof Membrane,                  !- Name
  MediumRough,                            !- Roughness
  0.01,                                   !- Thickness {m}
  0.16,                                   !- Conductivity {W/m-K}
  1120,                                   !- Density {kg/m3}
  1460,                                   !- Specific Heat {J/kg-K}
  0.9,                                    !- Thermal Absorptance
  0.65,                                   !- Solar Absorptance
  0.65;                                   !- Visible Absorptance

OS:Construction,
  {a7658c21-a92e-4129-94f5-56a84c0155b3}, !- Handle
  Generic Interior Ceiling,               !- Name
  ,                                       !- Surface Rendering Name
  {fdbce1c5-f42a-4577-95c2-9ca478d2eb95}, !- Layer 1
  {2676817d-0203-421a-8e9a-ee832e63655a}, !- Layer 2
  {ae7939d5-b457-4ccc-b854-a22fe47dac24}; !- Layer 3

OS:Construction,
  {fec8ff16-6488-4612-8fe7-6cac1dd59506}, !- Handle
  Attic Floor Construction,               !- Name
  ,                                       !- Surface Rendering Name
  {53291e54-6365-49c8-8723-8202d63c9301}, !- Layer 1
  {fd92f674-e96c-489c-8f08-a0098bc5d496}, !- Layer 2
  {53291e54-6365-49c8-8723-8202d63c9301}; !- Layer 3

OS:Construction,
  {bbed01d5-8322-4e7b-9a3e-25e3f59eb1c6}, !- Handle
  Generic Ground Slab,                    !- Name
  ,                                       !- Surface Rendering Name
  {fd92f674-e96c-489c-8f08-a0098bc5d496}, !- Layer 1
  {9beff4b2-7617-44ad-a178-0bebe83f1885}; !- Layer 2

OS:Construction,
  {39e1e245-aeea-46d6-9f2e-caee609b68cc}, !- Handle
  Generic Shade,                          !- Name
  ,                                       !- Surface Rendering Name
  {bd230d77-b8a7-4a67-82eb-8761ffdbaa43}; !- Layer 1

OS:Material,
  {bd230d77-b8a7-4a67-82eb-8761ffdbaa43}, !- Handle
  Material 1,                             !- Name
  Smooth,                                 !- Roughness
  0.1,                                    !- Thickness {m}
  0.1,                                    !- Conductivity {W/m-K}
  0.1,                                    !- Density {kg/m3}
  100,                                    !- Specific Heat {J/kg-K}
  ,                                       !- Thermal Absorptance
  0.65,                                   !- Solar Absorptance
  0.65;                                   !- Visible Absorptance

OS:Construction,
  {63aedfeb-f4f1-46b2-b9a7-e6a17588fffb}, !- Handle
  Generic Roof,                           !- Name
  ,                                       !- Surface Rendering Name
  {86598a60-5b96-44fd-bbc3-64ab4edc39eb}, !- Layer 1
  {fd92f674-e96c-489c-8f08-a0098bc5d496}, !- Layer 2
  {fdbce1c5-f42a-4577-95c2-9ca478d2eb95}, !- Layer 3
  {2676817d-0203-421a-8e9a-ee832e63655a}, !- Layer 4
  {ae7939d5-b457-4ccc-b854-a22fe47dac24}; !- Layer 5

OS:Construction,
  {1f8d75f8-940d-495c-b95e-71b59a6ee43b}, !- Handle
  Generic Interior Floor,                 !- Name
  ,                                       !- Surface Rendering Name
  {ae7939d5-b457-4ccc-b854-a22fe47dac24}, !- Layer 1
  {2676817d-0203-421a-8e9a-ee832e63655a}, !- Layer 2
  {fdbce1c5-f42a-4577-95c2-9ca478d2eb95}; !- Layer 3

OS:Construction,
  {a6be832b-8d70-4e43-87f7-ccfd63880286}, !- Handle
  Generic Interior Door,                  !- Name
  ,                                       !- Surface Rendering Name
  {53291e54-6365-49c8-8723-8202d63c9301}; !- Layer 1

OS:Construction,
  {97e50334-cc9f-4dd7-98d2-cf3f4352321d}, !- Handle
  Attic Roof Construction,                !- Name
  ,                                       !- Surface Rendering Name
  {86598a60-5b96-44fd-bbc3-64ab4edc39eb}, !- Layer 1
  {6850f0d9-310a-4bce-a8ca-60db1cf807d6}, !- Layer 2
  {53291e54-6365-49c8-8723-8202d63c9301}; !- Layer 3

OS:Construction,
  {f2219ba6-bb50-486a-a17a-a1a255e037f7}, !- Handle
  Generic Exterior Wall,                  !- Name
  ,                                       !- Surface Rendering Name
  {10682d33-6529-492d-b5b7-5ca983ecee0d}, !- Layer 1
  {fdbce1c5-f42a-4577-95c2-9ca478d2eb95}, !- Layer 2
  {fd92f674-e96c-489c-8f08-a0098bc5d496}, !- Layer 3
  {986dd5eb-ed30-45fb-8387-e3c4a2d9c80e}, !- Layer 4
  {3aca2d7f-f8e9-4f5f-a985-7023721820ff}; !- Layer 5

OS:Construction,
  {bb009f1a-5b84-4ea6-8187-f376583b76ef}, !- Handle
  Generic Underground Wall,               !- Name
  ,                                       !- Surface Rendering Name
  {fd92f674-e96c-489c-8f08-a0098bc5d496}, !- Layer 1
  {9beff4b2-7617-44ad-a178-0bebe83f1885}, !- Layer 2
  {986dd5eb-ed30-45fb-8387-e3c4a2d9c80e}, !- Layer 3
  {3aca2d7f-f8e9-4f5f-a985-7023721820ff}; !- Layer 4

OS:Construction,
  {6c0ab0ce-b825-403e-a2e0-356b6fd6d3c6}, !- Handle
  Generic Interior Wall,                  !- Name
  ,                                       !- Surface Rendering Name
  {3aca2d7f-f8e9-4f5f-a985-7023721820ff}, !- Layer 1
  {986dd5eb-ed30-45fb-8387-e3c4a2d9c80e}, !- Layer 2
  {3aca2d7f-f8e9-4f5f-a985-7023721820ff}; !- Layer 3

OS:Construction,
  {13883eb8-f08d-4c7b-a0a1-f3c3ebceaceb}, !- Handle
  Generic Exposed Floor,                  !- Name
  ,                                       !- Surface Rendering Name
  {909b97c6-d820-4a5d-91fc-9bb090aaec9c}, !- Layer 1
  {2676817d-0203-421a-8e9a-ee832e63655a}, !- Layer 2
  {fd92f674-e96c-489c-8f08-a0098bc5d496}, !- Layer 3
  {fdbce1c5-f42a-4577-95c2-9ca478d2eb95}; !- Layer 4

OS:Construction,
  {de1683d4-6a93-40e2-b3d6-e383f40232f1}, !- Handle
  Generic Underground Roof,               !- Name
  ,                                       !- Surface Rendering Name
  {fd92f674-e96c-489c-8f08-a0098bc5d496}, !- Layer 1
  {9beff4b2-7617-44ad-a178-0bebe83f1885}, !- Layer 2
  {2676817d-0203-421a-8e9a-ee832e63655a}, !- Layer 3
  {ae7939d5-b457-4ccc-b854-a22fe47dac24}; !- Layer 4

OS:Construction,
  {af859b6d-3a1d-4e89-8210-f0f0c6d4f827}, !- Handle
  Generic Single Pane,                    !- Name
  ,                                       !- Surface Rendering Name
  {1093e989-42f8-4f4c-8bdc-f89ce1158490}; !- Layer 1

OS:Construction,
  {751e5ff6-b233-4671-9d14-4e56fae8d57f}, !- Handle
  Generic Exterior Door,                  !- Name
  ,                                       !- Surface Rendering Name
  {909b97c6-d820-4a5d-91fc-9bb090aaec9c}, !- Layer 1
  {e91f169a-96be-4b26-878e-2120cf618731}, !- Layer 2
  {909b97c6-d820-4a5d-91fc-9bb090aaec9c}; !- Layer 3

OS:Construction,
  {f27599c3-92d3-49db-b33c-dfa4edeba2f6}, !- Handle
  Generic Double Pane,                    !- Name
  ,                                       !- Surface Rendering Name
  {26723659-9a09-495b-9c25-62be10c04b9b}, !- Layer 1
  {425d3f9f-61ad-4f3b-9121-5b478cbb5e75}, !- Layer 2
  {1093e989-42f8-4f4c-8bdc-f89ce1158490}; !- Layer 3

OS:DefaultConstructionSet,
  {f32eefd9-1f84-4ba9-835e-90afc7ff59cb}, !- Handle
  Default Generic Construction Set,       !- Name
  {1fb4fb68-912b-4f00-9f65-53631e34636d}, !- Default Exterior Surface Constructions Name
  {cc17f826-b57b-452a-a38c-37e83b5932ae}, !- Default Interior Surface Constructions Name
  {1fb4fb68-912b-4f00-9f65-53631e34636d}, !- Default Ground Contact Surface Constructions Name
  {b0633112-bb11-4ad9-b0b3-e6050debb517}, !- Default Exterior SubSurface Constructions Name
  {2c6a4edd-abb6-4d51-ad5e-47668b2ee32d}, !- Default Interior SubSurface Constructions Name
  ,                                       !- Interior Partition Construction Name
  {39e1e245-aeea-46d6-9f2e-caee609b68cc}, !- Space Shading Construction Name
  ,                                       !- Building Shading Construction Name
  ,                                       !- Site Shading Construction Name
  ;                                       !- Adiabatic Surface Construction Name

OS:DefaultSurfaceConstructions,
  {cc17f826-b57b-452a-a38c-37e83b5932ae}, !- Handle
  Default Surface Constructions 1,        !- Name
  {1f8d75f8-940d-495c-b95e-71b59a6ee43b}, !- Floor Construction Name
  {6c0ab0ce-b825-403e-a2e0-356b6fd6d3c6}, !- Wall Construction Name
  {a7658c21-a92e-4129-94f5-56a84c0155b3}; !- Roof Ceiling Construction Name

OS:DefaultSurfaceConstructions,
  {8e4915ab-02fb-42f0-a63d-112dda28412a}, !- Handle
  Default Surface Constructions 2,        !- Name
  {13883eb8-f08d-4c7b-a0a1-f3c3ebceaceb}, !- Floor Construction Name
  {f2219ba6-bb50-486a-a17a-a1a255e037f7}, !- Wall Construction Name
  {63aedfeb-f4f1-46b2-b9a7-e6a17588fffb}; !- Roof Ceiling Construction Name

OS:DefaultSurfaceConstructions,
  {1fb4fb68-912b-4f00-9f65-53631e34636d}, !- Handle
  Default Surface Constructions 3,        !- Name
  {bbed01d5-8322-4e7b-9a3e-25e3f59eb1c6}, !- Floor Construction Name
  {bb009f1a-5b84-4ea6-8187-f376583b76ef}, !- Wall Construction Name
  {de1683d4-6a93-40e2-b3d6-e383f40232f1}; !- Roof Ceiling Construction Name

OS:DefaultSubSurfaceConstructions,
  {2c6a4edd-abb6-4d51-ad5e-47668b2ee32d}, !- Handle
  Default Sub Surface Constructions 1,    !- Name
  ,                                       !- Fixed Window Construction Name
  {af859b6d-3a1d-4e89-8210-f0f0c6d4f827}, !- Operable Window Construction Name
  ,                                       !- Door Construction Name
  {af859b6d-3a1d-4e89-8210-f0f0c6d4f827}, !- Glass Door Construction Name
  {a6be832b-8d70-4e43-87f7-ccfd63880286}, !- Overhead Door Construction Name
  ,                                       !- Skylight Construction Name
  ,                                       !- Tubular Daylight Dome Construction Name
  ;                                       !- Tubular Daylight Diffuser Construction Name

OS:DefaultSubSurfaceConstructions,
  {b0633112-bb11-4ad9-b0b3-e6050debb517}, !- Handle
  Default Sub Surface Constructions 2,    !- Name
  {f27599c3-92d3-49db-b33c-dfa4edeba2f6}, !- Fixed Window Construction Name
  ,                                       !- Operable Window Construction Name
  {751e5ff6-b233-4671-9d14-4e56fae8d57f}, !- Door Construction Name
  {f27599c3-92d3-49db-b33c-dfa4edeba2f6}, !- Glass Door Construction Name
  ,                                       !- Overhead Door Construction Name
  {f27599c3-92d3-49db-b33c-dfa4edeba2f6}, !- Skylight Construction Name
  ,                                       !- Tubular Daylight Dome Construction Name
  ;                                       !- Tubular Daylight Diffuser Construction Name

OS:DefaultConstructionSet,
  {2f492f0d-1822-405e-a763-e645a21d5bc4}, !- Handle
  Attic Construction Set,                 !- Name
  ,                                       !- Default Exterior Surface Constructions Name
  {726cdf52-dd53-407b-ac4f-dfff21d6dc60}, !- Default Interior Surface Constructions Name
  ,                                       !- Default Ground Contact Surface Constructions Name
  ,                                       !- Default Exterior SubSurface Constructions Name
  ,                                       !- Default Interior SubSurface Constructions Name
  ,                                       !- Interior Partition Construction Name
  ,                                       !- Space Shading Construction Name
  ,                                       !- Building Shading Construction Name
  ,                                       !- Site Shading Construction Name
  ;                                       !- Adiabatic Surface Construction Name

OS:DefaultSurfaceConstructions,
  {726cdf52-dd53-407b-ac4f-dfff21d6dc60}, !- Handle
  Default Surface Constructions 4,        !- Name
  {fec8ff16-6488-4612-8fe7-6cac1dd59506}, !- Floor Construction Name
  ,                                       !- Wall Construction Name
  ;                                       !- Roof Ceiling Construction Name

OS:DefaultSurfaceConstructions,
  {aa69bfb1-217d-434a-888d-a7336be75c91}, !- Handle
  Default Surface Constructions 5,        !- Name
  ,                                       !- Floor Construction Name
  ,                                       !- Wall Construction Name
  ;                                       !- Roof Ceiling Construction Name

OS:DefaultSurfaceConstructions,
  {5d0685ed-5a0c-400f-a0cd-ecc1ed665aeb}, !- Handle
  Default Surface Constructions 6,        !- Name
  ,                                       !- Floor Construction Name
  ,                                       !- Wall Construction Name
  ;                                       !- Roof Ceiling Construction Name

OS:DefaultSubSurfaceConstructions,
  {316f44e0-e7cb-4402-a4fb-bb09bad66a45}, !- Handle
  Default Sub Surface Constructions 3,    !- Name
  ,                                       !- Fixed Window Construction Name
  ,                                       !- Operable Window Construction Name
  ,                                       !- Door Construction Name
  ,                                       !- Glass Door Construction Name
  ,                                       !- Overhead Door Construction Name
  ,                                       !- Skylight Construction Name
  ,                                       !- Tubular Daylight Dome Construction Name
  ;                                       !- Tubular Daylight Diffuser Construction Name

OS:DefaultSubSurfaceConstructions,
  {26883e50-bc6d-4fdd-90bf-1354cf724c57}, !- Handle
  Default Sub Surface Constructions 4,    !- Name
  ,                                       !- Fixed Window Construction Name
  ,                                       !- Operable Window Construction Name
  ,                                       !- Door Construction Name
  ,                                       !- Glass Door Construction Name
  ,                                       !- Overhead Door Construction Name
  ,                                       !- Skylight Construction Name
  ,                                       !- Tubular Daylight Dome Construction Name
  ;                                       !- Tubular Daylight Diffuser Construction Name

OS:Building,
  {488c726e-86bc-43fb-bcab-af9cdab5390f}, !- Handle
  Building 1,                             !- Name
  ,                                       !- Building Sector Type
  ,                                       !- North Axis {deg}
  ,                                       !- Nominal Floor to Floor Height {m}
  ,                                       !- Space Type Name
  {f32eefd9-1f84-4ba9-835e-90afc7ff59cb}, !- Default Construction Set Name
  ;                                       !- Default Schedule Set Name

OS:Space,
  {bd5a506d-bb9b-4da3-98ab-a2b49ae78ac6}, !- Handle
  FirstFloor,                             !- Name
  ,                                       !- Space Type Name
  ,                                       !- Default Construction Set Name
  ,                                       !- Default Schedule Set Name
  ,                                       !- Direction of Relative North {deg}
  ,                                       !- X Origin {m}
  ,                                       !- Y Origin {m}
  ,                                       !- Z Origin {m}
  ,                                       !- Building Story Name
  {fb18b2eb-948b-44f7-973f-3c48125266fb}; !- Thermal Zone Name

OS:Surface,
  {9045dfc6-a45f-4995-b9f6-0c8d11487908}, !- Handle
  FirstFloor_Bottom,                      !- Name
  Floor,                                  !- Surface Type
  ,                                       !- Construction Name
  {bd5a506d-bb9b-4da3-98ab-a2b49ae78ac6}, !- Space Name
  Ground,                                 !- Outside Boundary Condition
  ,                                       !- Outside Boundary Condition Object
  NoSun,                                  !- Sun Exposure
  NoWind,                                 !- Wind Exposure
  ,                                       !- View Factor to Ground
  ,                                       !- Number of Vertices
  0, 0, 0,                                !- X,Y,Z Vertex 1 {m}
  0, 10, 0,                               !- X,Y,Z Vertex 2 {m}
  10, 10, 0,                              !- X,Y,Z Vertex 3 {m}
  10, 0, 0;                               !- X,Y,Z Vertex 4 {m}

OS:ShadingSurfaceGroup,
  {90f210e9-c55a-47ea-8550-26d9203fafd4}, !- Handle
  Shading Surface Group 1,                !- Name
  Building;                               !- Shading Surface Type

OS:Surface,
  {9f577fb9-d8dc-44cf-99b0-69c990c9d730}, !- Handle
  FirstFloor_Front,                       !- Name
  Wall,                                   !- Surface Type
  ,                                       !- Construction Name
  {bd5a506d-bb9b-4da3-98ab-a2b49ae78ac6}, !- Space Name
  Outdoors,                               !- Outside Boundary Condition
  ,                                       !- Outside Boundary Condition Object
  SunExposed,                             !- Sun Exposure
  WindExposed,                            !- Wind Exposure
  Autocalculate,                          !- View Factor to Ground
  ,                                       !- Number of Vertices
  10, 10, 3,                              !- X,Y,Z Vertex 1 {m}
  10, 10, 0,                              !- X,Y,Z Vertex 2 {m}
  0, 10, 0,                               !- X,Y,Z Vertex 3 {m}
  0, 10, 3;                               !- X,Y,Z Vertex 4 {m}

OS:SubSurface,
  {d3ecb969-8bf2-4110-856c-523dab85f416}, !- Handle
  FirstFloor_Front_Glz0,                  !- Name
  FixedWindow,                            !- Sub Surface Type
  ,                                       !- Construction Name
  {9f577fb9-d8dc-44cf-99b0-69c990c9d730}, !- Surface Name
  ,                                       !- Outside Boundary Condition Object
  ,                                       !- View Factor to Ground
  ,                                       !- Shading Control Name
  ,                                       !- Frame and Divider Name
  ,                                       !- Multiplier
  ,                                       !- Number of Vertices
  7.23606797749979, 10, 2.17082039324994, !- X,Y,Z Vertex 1 {m}
  7.23606797749979, 10, 0.829179606750063, !- X,Y,Z Vertex 2 {m}
  2.76393202250021, 10, 0.829179606750063, !- X,Y,Z Vertex 3 {m}
  2.76393202250021, 10, 2.17082039324994; !- X,Y,Z Vertex 4 {m}

OS:ShadingSurfaceGroup,
  {b6a5704c-f12b-4df6-8232-725cc947a8f1}, !- Handle
  Shading Surface Group 2,                !- Name
  Building;                               !- Shading Surface Type

OS:ShadingSurfaceGroup,
  {a635f73e-b846-4202-ba6b-145d3ff6453c}, !- Handle
  Shading Surface Group 3,                !- Name
  Building;                               !- Shading Surface Type

OS:Surface,
  {739b0e40-33cb-43cd-bb54-1a7da549599b}, !- Handle
  FirstFloor_Right,                       !- Name
  Wall,                                   !- Surface Type
  ,                                       !- Construction Name
  {bd5a506d-bb9b-4da3-98ab-a2b49ae78ac6}, !- Space Name
  Outdoors,                               !- Outside Boundary Condition
  ,                                       !- Outside Boundary Condition Object
  SunExposed,                             !- Sun Exposure
  WindExposed,                            !- Wind Exposure
  Autocalculate,                          !- View Factor to Ground
  ,                                       !- Number of Vertices
  10, 0, 3,                               !- X,Y,Z Vertex 1 {m}
  10, 0, 0,                               !- X,Y,Z Vertex 2 {m}
  10, 10, 0,                              !- X,Y,Z Vertex 3 {m}